##TITLE=13C_ns1024 DMSO /opt/topspin3.5pl6/data/complat/nmr PH 44
##JCAMPDX= 6.0         $$ Bruker NMR compound JCAMP-DX V2.0
##DATA TYPE= LINK
##BLOCKS=   2
##TITLE=13C_ns1024 DMSO /opt/topspin3.5pl6/data/complat/nmr PH 44
##JCAMPDX= 6.0         $$ Bruker NMR JCAMP-DX V2.0
##DATA TYPE= NMR FID
##DATA CLASS= NTUPLES
##ORIGIN= PH
##OWNER= PH
##LONG DATE= 2018/07/10 05:55:16+0000
$$ 1.90.2.2 TopSpin 3.5 pl 6
$$ 2018-07-10 07:55:17.736 +0200  nmr@ibg-4-babsi
$$ Compression mode = diff/dup
##.OBSERVE FREQUENCY= 100.623835930538
##.OBSERVE NUCLEUS= ^13C
##.DELAY= (6.5, 6.5)
##.ACQUISITION MODE= SIMULTANEOUS (DQD)
##.ACQUISITION SCHEME= undefined
##.AVERAGES= 1024
##.DIGITISER RES= 21
##SPECTROMETER/DATA SYSTEM= spect
##.PULSE SEQUENCE= zgpg30
##.SOLVENT NAME= DMSO
##.SHIFT REFERENCE= INTERNAL, DMSO, 1, 235.4936
##AUDIT TRAIL= $$ (NUMBER, WHEN, WHO, WHERE, PROCESS, VERSION, WHAT)
$$ ##TITLE= Audit trail, TopSpin 3.5 pl 6
$$ ##JCAMPDX= 5.01
$$ ##ORIGIN= Bruker BioSpin GmbH
$$ ##OWNER= nmr
$$ $$ /opt/topspin3.5pl6/data/complat/nmr/data/PH/nmr/PH-771/31/audita.txt
$$ ##AUDIT TRAIL=  $$ (NUMBER, WHEN, WHO, WHERE, PROCESS, VERSION, WHAT)
(   1,<2018-07-10 07:55:16.904 +0200>,<nmr>,<ibg-4-babsi>,<go4>,<TopSpin 3.5.6>,
      <created by zg
	started at 2018-07-10 06:57:39.012 +0200,
	POWCHK enabled, PULCHK disabled,
       configuration hash MD5:
       40 53 6C 46 18 DA EE D3 1B 86 22 DD 91 B5 2B 72
       data hash MD5: 64K
       1C 52 0C 45 04 10 9C C9 FB 95 92 78 8C FC E8 F5>)
(   2,<2018-07-10 07:55:16.939 +0200>,<nmr>,<ibg-4-babsi>,<audit>,<TopSpin 3.5.6>,
      <user comment:
       ICON-NMR User ID: PH
       data hash MD5: 64K
       1C 52 0C 45 04 10 9C C9 FB 95 92 78 8C FC E8 F5>)
$$ ##END=
$$ 
$$ $$ hash MD5
$$ $$ E4 71 1B 93 A7 03 6C F2 55 FC A0 B8 5D FB F7 8D
##$RELAX= 
##$BRUKER FILE EXP=cpdprg2
$$ 1 pcpd*3:180
$$   pcpd*4:0
$$   pcpd*2:180
$$   pcpd*3:0
$$   pcpd  :180
$$   pcpd*2:0
$$   pcpd*4:180
$$   pcpd*2:0
$$   pcpd*3:180
$$ 2 pcpd*3:0
$$   pcpd*4:180
$$   pcpd*2:0
$$   pcpd*3:180
$$   pcpd  :0
$$   pcpd*2:180
$$   pcpd*4:0
$$   pcpd*2:180
$$   pcpd*3:0
$$   lo to 2 times 2
$$ 3 pcpd*3:180
$$   pcpd*4:0
$$   pcpd*2:180
$$   pcpd*3:0
$$   pcpd  :180
$$   pcpd*2:0
$$   pcpd*4:180
$$   pcpd*2:0
$$   pcpd*3:180
$$   jump to 1
##$RELAX= 
##$BRUKER FILE EXP=format.temp
$$ EDIT_PAR COMMAND FILE
$$ 
$$ DI_MODE         LONG
$$ ED_ENTRY        ACQU
$$ ORDER           FILE
$$ 
$$ 
$$ HEADER		"F2 - Acquisition Parameters"
$$ T_NAME		Date_
$$ 		TYPE	R64
$$ 		CLASS	ACQU
$$ 		SUBRANGE 0.0 50000000
$$ 		REL	"Date_=itodate(DATE)"
$$ 		INV_REL	"DATE=datetoi(Date_,DATE)"
$$ 		FORMAT	"%14.0f"
$$ 		TEXT	" "
$$ END
$$ T_NAME		Time
$$ 		TYPE	R32
$$ 		CLASS	ACQU
$$ 		SUBRANGE 0.0 1000000
$$ 		REL	"Time=itotime(DATE)"
$$ 		INV_REL	"DATE=timetoi(Time,DATE)"
$$ 		FORMAT	"%14.2f h"
$$ 		TEXT	" "
$$ END
$$ NAME		INSTRUM
$$ 		TEXT	" "
$$ END
$$ NAME		PROBHD
$$ 		FORMAT	"%14.14s"
$$ 		TEXT	" "
$$ END
$$ NAME		PULPROG
$$ 		TEXT	" "
$$ END
$$ NAME		TD
$$ 		TEXT	" "
$$ END
$$ NAME		SOLVENT
$$ 		TEXT	" "
$$ END
$$ NAME		NS
$$ 		TEXT	" "
$$ END
$$ NAME		DS
$$ 		TEXT	" "
$$ END
$$ T_NAME		SWH
$$ 		TYPE	R32
$$ 		CLASS	ACQU
$$ 		SUBRANGE 0.0 1e8
$$ 		REL	"SWH=SW*SFO1"
$$ 		INV_REL "SW=SWH/SFO1"
$$ 		UNIT	"Hz"
$$ 		FORMAT	"%14.3f Hz"
$$ 		TEXT	" "
$$ END
$$ T_NAME          FIDRES
$$                 TYPE    R32
$$                 CLASS   ACQU
$$                 SUBRANGE 0.0 100000
$$                 REL     "FIDRES=2*SW*SFO1/TD"
$$                 INV_REL "TD = nextpow(2*SW*SFO1/FIDRES)"
$$ 		UNIT	"Hz"
$$ 		FORMAT	"%14.6f Hz"
$$ 		TEXT	" "
$$ END
$$ T_NAME          AQ
$$ 		TYPE	R32
$$ 		CLASS	ACQU
$$ 		SUBRANGE 0.0 1000
$$ 		REL	"AQ=aqcalc(SW,SFO1,TD,DIGTYP)"
$$ 		INV_REL	"TD=tdcalc(SW,SFO1,1.0e6*AQ,DIGTYP)"
$$ 		UNIT	"sec"
$$ 		FORMAT	"%14.7f sec"
$$ 		TEXT	" "
$$ END
$$ NAME		RG
$$ 		TEXT	" "
$$ END
$$ T_NAME          DW
$$ 		TYPE	R32
$$ 		CLASS	ACQU
$$ 		SUBRANGE 0.0 1000000
$$ 		REL	"DW=1/(2*SW*SFO1)"
$$ 		INV_REL	"SW=1000000/(2*(0.005+DW)*SFO1)"
$$ 		UNIT	"usec"
$$ 		FORMAT	"%14.3lf usec"
$$ 		TEXT	" "
$$ END
$$ NAME		DE
$$ 		FORMAT	"%14.2f usec"
$$ 		TEXT	" "
$$ END
$$ NAME		TE
$$ 		FORMAT	"%14.1f K"
$$ 		TEXT	" "
$$ END
$$ T_NAME		D1
$$ 		TYPE	R32
$$ 		CLASS	ACQU
$$ 		SUBRANGE 0.0 1e38
$$ 		REL	"D1=D[1]"
$$ 		INV_REL	"D[1]=D1"
$$ 		UNIT	"sec"
$$ 		FORMAT	"%14.8f sec"
$$ 		TEXT	" "
$$ END
$$ T_NAME		D11
$$ 		TYPE	R32
$$ 		CLASS	ACQU
$$ 		SUBRANGE 0.0 1e38
$$ 		REL	"D11=D[11]"
$$ 		INV_REL	"D[11]=D11"
$$ 		UNIT	"sec"
$$ 		FORMAT	"%14.8f sec"
$$ 		TEXT	" "
$$ END
$$ NAME		TD0
$$ 		TEXT	" "
$$ END
$$ NAME		SFO1
$$ 		FORMAT	"%14.7f MHz"
$$ 		TEXT	" "
$$ END
$$ NAME		NUC1
$$ 		NONEDIT
$$ 		TEXT	" "
$$ END
$$ T_NAME		P1
$$ 		TYPE	R32
$$ 		CLASS	ACQU
$$ 		SUBRANGE 0.0 1.0e10
$$ 		REL	"P1=P[1]"
$$ 		INV_REL	"P[1]=P1"
$$ 		UNIT	"usec"
$$ 		FORMAT	"%14.2f usec"
$$ 		TEXT	" "
$$ END
$$ T_NAME		PLW1
$$ 		TYPE	R32
$$ 		CLASS	ACQU
$$ 		REL	"PLW1=PLW[1]"
$$ 		INV_REL	"PLW[1]=PLW1"
$$ 		UNIT	"W"
$$ 		FORMAT	"%14.8f W"
$$ 		TEXT	"power PLW1 "
$$ END
$$ NAME		SFO2
$$ 		FORMAT	"%14.7f MHz"
$$ 		TEXT	" "
$$ END
$$ NAME		NUC2
$$ 		NONEDIT
$$ 		TEXT	" "
$$ END
$$ NAME		CPDPRG[2]
$$ 		TEXT	" "
$$ END
$$ T_NAME		PCPD2
$$ 		TYPE	R32
$$ 		CLASS	ACQU
$$ 		SUBRANGE 0 1e38
$$ 		REL	"PCPD2=PCPD[2]"
$$ 		INV_REL	"PCPD[2]=PCPD2"
$$ 		UNIT	"usec"
$$ 		FORMAT	"%14.2f usec"
$$ 		TEXT	" "
$$ END
$$ T_NAME		PLW2
$$ 		TYPE	R32
$$ 		CLASS	ACQU
$$ 		REL	"PLW2=PLW[2]"
$$ 		INV_REL	"PLW[2]=PLW2"
$$ 		UNIT	"W"
$$ 		FORMAT	"%14.8f W"
$$ 		TEXT	"power PLW2 "
$$ END
$$ T_NAME		PLW12
$$ 		TYPE	R32
$$ 		CLASS	ACQU
$$ 		REL	"PLW12=PLW[12]"
$$ 		INV_REL	"PLW[12]=PLW12"
$$ 		UNIT	"W"
$$ 		FORMAT	"%14.8f W"
$$ 		TEXT	"power PLW12 "
$$ END
$$ T_NAME		PLW13
$$ 		TYPE	R32
$$ 		CLASS	ACQU
$$ 		REL	"PLW13=PLW[13]"
$$ 		INV_REL	"PLW[13]=PLW13"
$$ 		UNIT	"W"
$$ 		FORMAT	"%14.8f W"
$$ 		TEXT	"power PLW13 "
$$ END
##$RELAX= 
##$BRUKER FILE EXP=fq1list
$$ O 400.131601
$$ -2000000
$$ -1992172
$$ -1984344
$$ -1976517
$$ -1968689
$$ -1960861
$$ -1953033
$$ -1945205
$$ -1937378
$$ -1929550
$$ -1921722
$$ -1913894
$$ -1906067
$$ -1898239
$$ -1890411
$$ -1882583
$$ -1874755
$$ -1866928
$$ -1859100
$$ -1851272
$$ -1843444
$$ -1835616
$$ -1827789
$$ -1819961
$$ -1812133
$$ -1804305
$$ -1796477
$$ -1788650
$$ -1780822
$$ -1772994
$$ -1765166
$$ -1757339
$$ -1749511
$$ -1741683
$$ -1733855
$$ -1726027
$$ -1718200
$$ -1710372
$$ -1702544
$$ -1694716
$$ -1686888
$$ -1679061
$$ -1671233
$$ -1663405
$$ -1655577
$$ -1647750
$$ -1639922
$$ -1632094
$$ -1624266
$$ -1616438
$$ -1608611
$$ -1600783
$$ -1592955
$$ -1585127
$$ -1577299
$$ -1569472
$$ -1561644
$$ -1553816
$$ -1545988
$$ -1538160
$$ -1530333
$$ -1522505
$$ -1514677
$$ -1506849
$$ -1499022
$$ -1491194
$$ -1483366
$$ -1475538
$$ -1467710
$$ -1459883
$$ -1452055
$$ -1444227
$$ -1436399
$$ -1428571
$$ -1420744
$$ -1412916
$$ -1405088
$$ -1397260
$$ -1389432
$$ -1381605
$$ -1373777
$$ -1365949
$$ -1358121
$$ -1350294
$$ -1342466
$$ -1334638
$$ -1326810
$$ -1318982
$$ -1311155
$$ -1303327
$$ -1295499
$$ -1287671
$$ -1279843
$$ -1272016
$$ -1264188
$$ -1256360
$$ -1248532
$$ -1240705
$$ -1232877
$$ -1225049
$$ -1217221
$$ -1209393
$$ -1201566
$$ -1193738
$$ -1185910
$$ -1178082
$$ -1170254
$$ -1162427
$$ -1154599
$$ -1146771
$$ -1138943
$$ -1131115
$$ -1123288
$$ -1115460
$$ -1107632
$$ -1099804
$$ -1091977
$$ -1084149
$$ -1076321
$$ -1068493
$$ -1060665
$$ -1052838
$$ -1045010
$$ -1037182
$$ -1029354
$$ -1021526
$$ -1013699
$$ -1005871
$$  -998043
$$  -990215
$$  -982387
$$  -974560
$$  -966732
$$  -958904
$$  -951076
$$  -943249
$$  -935421
$$  -927593
$$  -919765
$$  -911937
$$  -904110
$$  -896282
$$  -888454
$$  -880626
$$  -872798
$$  -864971
$$  -857143
$$  -849315
$$  -841487
$$  -833659
$$  -825832
$$  -818004
$$  -810176
$$  -802348
$$  -794521
$$  -786693
$$  -778865
$$  -771037
$$  -763209
$$  -755382
$$  -747554
$$  -739726
$$  -731898
$$  -724070
$$  -716243
$$  -708415
$$  -700587
$$  -692759
$$  -684932
$$  -677104
$$  -669276
$$  -661448
$$  -653620
$$  -645793
$$  -637965
$$  -630137
$$  -622309
$$  -614481
$$  -606654
$$  -598826
$$  -590998
$$  -583170
$$  -575342
$$  -567515
$$  -559687
$$  -551859
$$  -544031
$$  -536204
$$  -528376
$$  -520548
$$  -512720
$$  -504892
$$  -497065
$$  -489237
$$  -481409
$$  -473581
$$  -465753
$$  -457926
$$  -450098
$$  -442270
$$  -434442
$$  -426614
$$  -418787
$$  -410959
$$  -403131
$$  -395303
$$  -387476
$$  -379648
$$  -371820
$$  -363992
$$  -356164
$$  -348337
$$  -340509
$$  -332681
$$  -324853
$$  -317025
$$  -309198
$$  -301370
$$  -293542
$$  -285714
$$  -277886
$$  -270059
$$  -262231
$$  -254403
$$  -246575
$$  -238748
$$  -230920
$$  -223092
$$  -215264
$$  -207436
$$  -199609
$$  -191781
$$  -183953
$$  -176125
$$  -168297
$$  -160470
$$  -152642
$$  -144814
$$  -136986
$$  -129159
$$  -121331
$$  -113503
$$  -105675
$$   -97847
$$   -90020
$$   -82192
$$   -74364
$$   -66536
$$   -58708
$$   -50881
$$   -43053
$$   -35225
$$   -27397
$$   -19569
$$   -11742
$$    -3914
$$     3914
$$    11742
$$    19569
$$    27397
$$    35225
$$    43053
$$    50881
$$    58708
$$    66536
$$    74364
$$    82192
$$    90020
$$    97847
$$   105675
$$   113503
$$   121331
$$   129159
$$   136986
$$   144814
$$   152642
$$   160470
$$   168297
$$   176125
$$   183953
$$   191781
$$   199609
$$   207436
$$   215264
$$   223092
$$   230920
$$   238748
$$   246575
$$   254403
$$   262231
$$   270059
$$   277886
$$   285714
$$   293542
$$   301370
$$   309198
$$   317025
$$   324853
$$   332681
$$   340509
$$   348337
$$   356164
$$   363992
$$   371820
$$   379648
$$   387476
$$   395303
$$   403131
$$   410959
$$   418787
$$   426614
$$   434442
$$   442270
$$   450098
$$   457926
$$   465753
$$   473581
$$   481409
$$   489237
$$   497065
$$   504892
$$   512720
$$   520548
$$   528376
$$   536204
$$   544031
$$   551859
$$   559687
$$   567515
$$   575342
$$   583170
$$   590998
$$   598826
$$   606654
$$   614481
$$   622309
$$   630137
$$   637965
$$   645793
$$   653620
$$   661448
$$   669276
$$   677104
$$   684932
$$   692759
$$   700587
$$   708415
$$   716243
$$   724070
$$   731898
$$   739726
$$   747554
$$   755382
$$   763209
$$   771037
$$   778865
$$   786693
$$   794521
$$   802348
$$   810176
$$   818004
$$   825832
$$   833659
$$   841487
$$   849315
$$   857143
$$   864971
$$   872798
$$   880626
$$   888454
$$   896282
$$   904110
$$   911937
$$   919765
$$   927593
$$   935421
$$   943249
$$   951076
$$   958904
$$   966732
$$   974560
$$   982387
$$   990215
$$   998043
$$  1005871
$$  1013699
$$  1021526
$$  1029354
$$  1037182
$$  1045010
$$  1052838
$$  1060665
$$  1068493
$$  1076321
$$  1084149
$$  1091977
$$  1099804
$$  1107632
$$  1115460
$$  1123288
$$  1131115
$$  1138943
$$  1146771
$$  1154599
$$  1162427
$$  1170254
$$  1178082
$$  1185910
$$  1193738
$$  1201566
$$  1209393
$$  1217221
$$  1225049
$$  1232877
$$  1240705
$$  1248532
$$  1256360
$$  1264188
$$  1272016
$$  1279843
$$  1287671
$$  1295499
$$  1303327
$$  1311155
$$  1318982
$$  1326810
$$  1334638
$$  1342466
$$  1350294
$$  1358121
$$  1365949
$$  1373777
$$  1381605
$$  1389432
$$  1397260
$$  1405088
$$  1412916
$$  1420744
$$  1428571
$$  1436399
$$  1444227
$$  1452055
$$  1459883
$$  1467710
$$  1475538
$$  1483366
$$  1491194
$$  1499022
$$  1506849
$$  1514677
$$  1522505
$$  1530333
$$  1538160
$$  1545988
$$  1553816
$$  1561644
$$  1569472
$$  1577299
$$  1585127
$$  1592955
$$  1600783
$$  1608611
$$  1616438
$$  1624266
$$  1632094
$$  1639922
$$  1647750
$$  1655577
$$  1663405
$$  1671233
$$  1679061
$$  1686888
$$  1694716
$$  1702544
$$  1710372
$$  1718200
$$  1726027
$$  1733855
$$  1741683
$$  1749511
$$  1757339
$$  1765166
$$  1772994
$$  1780822
$$  1788650
$$  1796477
$$  1804305
$$  1812133
$$  1819961
$$  1827789
$$  1835616
$$  1843444
$$  1851272
$$  1859100
$$  1866928
$$  1874755
$$  1882583
$$  1890411
$$  1898239
$$  1906067
$$  1913894
$$  1921722
$$  1929550
$$  1937378
$$  1945205
$$  1953033
$$  1960861
$$  1968689
$$  1976517
$$  1984344
$$  1992172
$$  2000000
##$RELAX= 
##$BRUKER FILE EXP=scon2
$$ ##TITLE= Parameter file, TopSpin 3.5 pl 6
$$ ##JCAMPDX= 5.0
$$ ##DATATYPE= Parameter Values
$$ ##NPOINTS= 1	$$ modification sequence number
$$ ##ORIGIN= Bruker BioSpin GmbH
$$ ##OWNER= nmr
$$ $$ 2018-07-10 06:57:38.987 +0200  nmr@ibg-4-babsi
$$ $$ /opt/topspin3.5pl6/data/complat/nmr/data/PH/nmr/PH-771/31/scon2
$$ $$ process /opt/topspin3.5pl6/prog/mod/go4
$$ ##$BLKTR= (0..19)
$$ 3 3 3 3 3 3 3 3 3 3 3 3 3 3 3 3 3 3 3 3
$$ ##$DE1= 4.5
$$ ##$DEADC= 0.5
$$ ##$DEPA= 4.5
$$ ##$DERX= 1.5
$$ ##$FILCOR= 0
$$ ##$GRADCHAN= 0
$$ ##$GRADPRE= (0..1)
$$ 10 10
$$ ##$HD_BLKTR= (0..19)
$$ 1 1 1 1 1 1 1 1 1 1 1 1 1 1 1 1 1 1 1 1
$$ ##$HD_DE1= 5
$$ ##$HD_DEADC= 0
$$ ##$HD_DEPA= 2.5
$$ ##$HD_DERX= 0
$$ ##END=
##$RELAX= 
##$BRUKER FILE EXP=prosol_History
##$RELAX= 
##$BRUKER FILE EXP=pulseprogram
$$ # 1 "/opt/topspin3.5pl6/exp/stan/nmr/lists/pp/zgpg30"
$$ ;zgpg30
$$ ;avance-version (12/01/11)
$$ ;1D sequence with power-gated decoupling
$$ ;using 30 degree flip angle
$$ ;
$$ ;$CLASS=HighRes
$$ ;$DIM=1D
$$ ;$TYPE=
$$ ;$SUBTYPE=
$$ ;$COMMENT=
$$ ;$RECOMMEND=y
$$ 
$$ 
$$ # 1 "/opt/topspin3.5pl6/exp/stan/nmr/lists/pp/Avance.incl" 1
$$ ;Avance3aqs.incl
$$ ;   for AV III with AQS IPSO
$$ ;
$$ ;avance-version (15/06/05)
$$ ;
$$ ;$CLASS=HighRes Incl
$$ ;$COMMENT=
$$ # 170 "/opt/topspin3.5pl6/exp/stan/nmr/lists/pp/Avance.incl"
$$ ;$Id: Avance3aqs.incl,v 1.1.8.3 2015/03/05 16:46:54 ber Exp $
$$ # 14 "/opt/topspin3.5pl6/exp/stan/nmr/lists/pp/zgpg30" 2
$$ 
$$ # 1 "/opt/topspin3.5pl6/exp/stan/nmr/lists/pp/Delay.incl" 1
$$ ;Delay.incl  -  include file for commonly used delays
$$ ;
$$ ;version (13/08/07)
$$ ;
$$ ;$CLASS=HighRes Incl
$$ ;$COMMENT=
$$ 
$$ # 9 "/opt/topspin3.5pl6/exp/stan/nmr/lists/pp/Delay.incl"
$$ ;general delays
$$ 
$$ define delay DELTA
$$ define delay DELTA1
$$ define delay DELTA2
$$ define delay DELTA3
$$ define delay DELTA4
$$ define delay DELTA5
$$ define delay DELTA6
$$ define delay DELTA7
$$ define delay DELTA8
$$ define delay DELTA9
$$ define delay DELTA10
$$ define delay DELTA11
$$ define delay DELTA12
$$ define delay DELTA13
$$ define delay DELTA14
$$ define delay DELTA15
$$ define delay DELTA16
$$ 
$$ define delay TAU
$$ define delay TAU1
$$ define delay TAU2
$$ define delay TAU3
$$ define delay TAU4
$$ define delay TAU5
$$ define delay TAU6
$$ define delay TAU7
$$ define delay TAU8
$$ define delay TAU9
$$ # 40 "/opt/topspin3.5pl6/exp/stan/nmr/lists/pp/Delay.incl"
$$ define delay INCR1
$$ define delay INCR2
$$ define delay INCR3
$$ define delay INCR4
$$ define delay INCR5
$$ define delay INCR6
$$ 
$$ 
$$ ;delays for centering pulses
$$ # 50 "/opt/topspin3.5pl6/exp/stan/nmr/lists/pp/Delay.incl"
$$ define delay CEN_HN1
$$ define delay CEN_HN2
$$ define delay CEN_HN3
$$ define delay CEN_HC1
$$ define delay CEN_HC2
$$ define delay CEN_HC3
$$ define delay CEN_HC4
$$ define delay CEN_HP1
$$ define delay CEN_HP2
$$ define delay CEN_CN1
$$ define delay CEN_CN2
$$ define delay CEN_CN3
$$ define delay CEN_CN4
$$ define delay CEN_CP1
$$ define delay CEN_CP2
$$ 
$$ 
$$ ;loop counters
$$ # 69 "/opt/topspin3.5pl6/exp/stan/nmr/lists/pp/Delay.incl"
$$ define loopcounter COUNTER
$$ define loopcounter SCALEF
$$ define loopcounter FACTOR1
$$ define loopcounter FACTOR2
$$ define loopcounter FACTOR3
$$ define loopcounter FACTOR4
$$ define loopcounter FACTOR5
$$ define loopcounter FACTOR6
$$ 
$$ 
$$ # 80 "/opt/topspin3.5pl6/exp/stan/nmr/lists/pp/Delay.incl"
$$ ;$Id: Delay.incl,v 1.14.2.1 2013/08/30 09:43:33 ber Exp $
$$ # 15 "/opt/topspin3.5pl6/exp/stan/nmr/lists/pp/zgpg30" 2
$$ 
$$ 
$$ # 18 "/opt/topspin3.5pl6/exp/stan/nmr/lists/pp/zgpg30"
$$ "d11=30m"
$$ 
$$ 
$$ "DELTA=d1-100m"
$$ # 24 "/opt/topspin3.5pl6/exp/stan/nmr/lists/pp/zgpg30"
$$ "acqt0=-p1*0.66/3.1416"
$$ 
$$ 
$$ # 1 "mc_line 27 file /opt/topspin3.5pl6/exp/stan/nmr/lists/pp/zgpg30 exp. def. part of mc cmd. before ze"
$$ ; dimension 1D; AQ_mode 
$$ define delay MCWRK
$$ define delay MCREST
$$ "MCREST = 30m - 30m"
$$ "MCWRK = 0.333333*30m"
$$ 
$$     dccorr
$$ # 27 "/opt/topspin3.5pl6/exp/stan/nmr/lists/pp/zgpg30"
$$ 1 ze
$$ # 1 "mc_line 27 file /opt/topspin3.5pl6/exp/stan/nmr/lists/pp/zgpg30 exp. def. of mc cmd. after ze"
$$ # 28 "/opt/topspin3.5pl6/exp/stan/nmr/lists/pp/zgpg30"
$$   d11 pl12:f2
$$ # 1 "mc_line 29 file /opt/topspin3.5pl6/exp/stan/nmr/lists/pp/zgpg30 exp. start label for mc cmd."
$$ 2 MCWRK  * 2 do:f2
$$ LBLF0, MCWRK 
$$   MCREST
$$ # 30 "/opt/topspin3.5pl6/exp/stan/nmr/lists/pp/zgpg30"
$$   10u pl13:f2
$$   d11 cpd2:f2
$$   DELTA
$$   4u do:f2
$$   10u pl12:f2
$$   100m cpd2:f2
$$   p1*0.33 ph1
$$   go=2 ph31
$$ # 1 "mc_line 38 file /opt/topspin3.5pl6/exp/stan/nmr/lists/pp/zgpg30 exp. mc cmd. in line"
$$   MCWRK do:f2 pl13:f2 wr #0
$$   MCWRK zd
$$   lo to LBLF0 times td0
$$ 
$$ # 39 "/opt/topspin3.5pl6/exp/stan/nmr/lists/pp/zgpg30"
$$ exit
$$ # 42 "/opt/topspin3.5pl6/exp/stan/nmr/lists/pp/zgpg30"
$$ ph1=0 2 2 0 1 3 3 1
$$ ph31=0 2 2 0 1 3 3 1
$$ 
$$ 
$$ ;pl1 : f1 channel - power level for pulse (default)
$$ ;pl12: f2 channel - power level for CPD/BB decoupling
$$ ;pl13: f2 channel - power level for second CPD/BB decoupling
$$ ;p1 : f1 channel -  90 degree high power pulse
$$ ;d1 : relaxation delay; 1-5 * T1
$$ ;d11: delay for disk I/O                             [30 msec]
$$ ;ns: 1 * n, total number of scans: NS * TD0
$$ ;cpd2: decoupling according to sequence defined by cpdprg2
$$ ;pcpd2: f2 channel - 90 degree pulse for decoupling sequence
$$ # 58 "/opt/topspin3.5pl6/exp/stan/nmr/lists/pp/zgpg30"
$$ ;$Id: zgpg30,v 1.13 2012/01/31 17:49:32 ber Exp $
##$RELAX= 
##$BRUKER FILE EXP=shimvalues
$$ # Tue Jul 10 07:55:16 2018
$$ #$$PROBEIDENTIFIER=Z116098_0570
$$ #$$PROBENAME=PA BBO 400S1 BBF-H-D-05 Z SP
$$ #$$SHIMID=292722
$$ #
$$ # Active Shim Gradients
$$ #
$$ Z           		-10354          
$$ Z2          		2179            
$$ Z3          		-311            
$$ Z4          		-1695           
$$ Z5          		519             
$$ Z6          		2192            
$$ Z7          		-2289           
$$ Z8          		-117            
$$ X           		3251            
$$ XZ          		-698            
$$ XZ2         		2438            
$$ XZ3         		-169            
$$ XZ4         		-555            
$$ XZ5         		1731            
$$ Y           		420             
$$ YZ          		-1082           
$$ YZ2         		-180            
$$ YZ3         		-929            
$$ YZ4         		233             
$$ YZ5         		3803            
$$ XY          		-1633           
$$ XYZ         		1468            
$$ XYZ2        		-417            
$$ XYZ3        		494             
$$ XYZ4        		263             
$$ XYZ5        		0               
$$ (X2-Y2)     		-1669           
$$ (X2-Y2)Z    		-1275           
$$ (X2-Y2)Z2   		976             
$$ (X2-Y2)Z3   		361             
$$ (X2-Y2)Z4   		-678            
$$ (X2-Y2)Z5   		0               
$$ X3          		2782            
$$ X3Z         		-52             
$$ Y3          		-133            
$$ Y3Z         		647             
$$ #
$$ # Lock Parameter
$$ #
$$ FIELD		4932.834
$$ LOCKPHASE		103.600 
$$ LOCKPOWER		-20.000 
$$ LOCKGAIN		99.468  
$$ LOCKDC		-75.000 
$$ LOCKSHIFT		2.490   
$$ LOOPGAIN		5.000   
$$ LOOPTIME		0.250   
$$ LOOPFILTER		500.000 
$$ #
$$ IEEE64_VERSION_CODE 1
$$ #
$$ # Shim currents 
$$ #
$$ SHIM_SETTING [1 ]  -5314.18612120  
$$ SHIM_SETTING [2 ]  1524.14770422   
$$ SHIM_SETTING [3 ]  878.74252933    
$$ SHIM_SETTING [4 ]  -1057.68271381  
$$ SHIM_SETTING [5 ]  140.71792495    
$$ SHIM_SETTING [6 ]  -124.38550301   
$$ SHIM_SETTING [7 ]  -495.58945409   
$$ SHIM_SETTING [8 ]  3153.20160203   
$$ SHIM_SETTING [9 ]  540.26917994    
$$ SHIM_SETTING [10]  658.17174159    
$$ SHIM_SETTING [11]  0.00000000      
$$ SHIM_SETTING [12]  -780.18000000   
$$ SHIM_SETTING [13]  514.48700000    
$$ SHIM_SETTING [14]  1374.39300000   
$$ SHIM_SETTING [15]  4786.77300000   
$$ SHIM_SETTING [16]  5286.18300000   
$$ SHIM_SETTING [17]  2452.32300000   
$$ SHIM_SETTING [18]  2010.58600000   
$$ SHIM_SETTING [19]  1859.41700000   
$$ SHIM_SETTING [20]  -1117.73500000  
$$ SHIM_SETTING [21]  -1427.28500000  
$$ SHIM_SETTING [22]  589.75700000    
$$ SHIM_SETTING [23]  -2832.90900000  
$$ SHIM_SETTING [24]  -578.45200000   
$$ SHIM_SETTING [25]  -1318.77900000  
$$ SHIM_SETTING [26]  -1470.93100000  
$$ SHIM_SETTING [27]  1324.21400000   
$$ SHIM_SETTING [28]  -260.35600000   
$$ SHIM_SETTING [29]  481.12800000    
$$ SHIM_SETTING [30]  -1162.33700000  
$$ SHIM_SETTING [31]  1564.29600000   
$$ SHIM_SETTING [32]  943.47600000    
$$ SHIM_SETTING [33]  481.78100000    
$$ SHIM_SETTING [34]  -3183.59300000  
$$ SHIM_SETTING [35]  -867.66700000   
$$ SHIM_SETTING [36]  -2313.08700000  
$$ SHIM_SETTING [37]  -2521.56100000  
$$ SHIM_SETTING [38]  3387.33700000   
$$ SHIM_SETTING [39]  -957.13500000   
$$ SHIM_SETTING [40]  0.00000000      
##$RELAX= 
##$BRUKER FILE EXP=uxnmr.par
$$ ##TITLE= Parameter file, TopSpin 3.5 pl 6
$$ ##JCAMPDX= 5.0
$$ ##DATATYPE= Parameter Values
$$ ##NPOINTS= 33	$$ modification sequence number
$$ ##ORIGIN= Bruker BioSpin GmbH
$$ ##OWNER= nmrsu
$$ $$ 2017-08-18 15:18:49.179 +0200  nmr@ibg-4-babsi
$$ $$ /opt/topspin3.5pl6/conf/instr/spect/uxnmr.par
$$ $$ process /opt/topspin3.5pl6/prog/mod/cfserverav3
$$ ##$ACB= 0
$$ ##$ACBTAT= (0..23)
$$ 0 66 66 50 0 0 0 0 0 0 0 0 0 0 0 0 0 0 0 0 0 0 0 0
$$ ##$ACBTBA= (0..23)
$$ 0 2 2 0 0 0 0 0 0 0 0 0 0 0 0 0 0 0 0 0 0 0 0 0
$$ ##$ACBTBLK= (0..23)
$$ 0 1 1 40 0 0 0 0 0 0 0 0 0 0 0 0 0 0 0 0 0 0 0 0
$$ ##$ACBTCTL= (0..23)
$$ 0 0 0 6 0 0 0 0 0 0 0 0 0 0 0 0 0 0 0 0 0 0 0 0
$$ ##$ACBTDI= (0..23)
$$ 0 102 102 -1779670252 0 0 0 0 0 0 0 0 0 0 0 0 0 0 0 0 0 0 0 0
$$ ##$ACBTDM= (0..23)
$$ 0 10 10 10 0 0 0 0 0 0 0 0 0 0 0 0 0 0 0 0 0 0 0 0
$$ ##$ACBTFHI= (0..23)
$$ 0 400 400 62 0 0 0 0 0 0 0 0 0 0 0 0 0 0 0 0 0 0 0 0
$$ ##$ACBTFL= (0..23)
$$ 0 73 74 8 0 0 0 0 0 0 0 0 0 0 0 0 0 0 0 0 0 0 0 0
$$ ##$ACBTFLO= (0..23)
$$ 0 9 9 60 0 0 0 0 0 0 0 0 0 0 0 0 0 0 0 0 0 0 0 0
$$ ##$ACBTINP= (0..23)
$$ 0 1 2 8 0 0 0 0 0 0 0 0 0 0 0 0 0 0 0 0 0 0 0 0
$$ ##$ACBTOUT= (0..23)
$$ 0 1 2 1 0 0 0 0 0 0 0 0 0 0 0 0 0 0 0 0 0 0 0 0
$$ ##$ACBTPO= (0..23)
$$ 0 150000 60000 5000 0 0 0 0 0 0 0 0 0 0 0 0 0 0 0 0 0 0 0 0
$$ ##$ACBTPW= (0..23)
$$ 0 10 10 1000 0 0 0 0 0 0 0 0 0 0 0 0 0 0 0 0 0 0 0 0
$$ ##$ACBTSB= (0..23)
$$ 0 0 0 0 0 0 0 0 0 0 0 0 0 0 0 0 0 0 0 0 0 0 0 0
$$ ##$ACBTSDT= (0..23)
$$ 0 -1 -1 2 0 0 0 0 0 0 0 0 0 0 0 0 0 0 0 0 0 0 0 0
$$ ##$ACBTY= <no>
$$ ##$AMPDFLT= no
$$ ##$AQSBDCH= (0..95)
$$ 0 0 0 0 0 0 0 0 0 0 255 255 255 255 255 255 255 255 255 255 255 255 255
$$ 255 255 255 255 255 255 255 255 255 255 255 255 255 255 255 255 255 255
$$ 255 255 255 255 255 255 255 255 255 255 255 255 255 255 255 255 255 255
$$ 255 255 255 255 255 255 255 255 255 255 255 255 255 255 255 255 255 255
$$ 255 255 255 255 255 255 255 255 255 255 255 255 255 255 255 255 255 255
$$ 255
$$ ##$AQSBDHW= (0..95)
$$ 5 1 0 0 0 0 0 0 0 0 255 255 255 255 255 255 255 255 255 255 255 255 255
$$ 255 255 255 255 255 255 255 255 255 255 255 255 255 255 255 255 255 255
$$ 255 255 255 255 255 255 255 255 255 255 255 255 255 255 255 255 255 255
$$ 255 255 255 255 255 255 255 255 255 255 255 255 255 255 255 255 255 255
$$ 255 255 255 255 255 255 255 255 255 255 255 255 255 255 255 255 255 255
$$ 255
$$ ##$AQSBDID= (0..95)
$$ 82 88 83 83 65 86 86 86 66 66 255 255 255 255 255 255 255 255 255 255 255
$$ 255 255 255 255 255 255 255 255 255 255 255 255 255 255 255 255 255 255
$$ 255 255 255 255 255 255 255 255 255 255 255 255 255 255 255 255 255 255
$$ 255 255 255 255 255 255 255 255 255 255 255 255 255 255 255 255 255 255
$$ 255 255 255 255 255 255 255 255 255 255 255 255 255 255 255 255 255 255
$$ 255 255 255
$$ ##$AQSBDNO= (0..95)
$$ 1 1 1 2 1 1 2 3 1 1 255 255 255 255 255 255 255 255 255 255 255 255 255
$$ 255 255 255 255 255 255 255 255 255 255 255 255 255 255 255 255 255 255
$$ 255 255 255 255 255 255 255 255 255 255 255 255 255 255 255 255 255 255
$$ 255 255 255 255 255 255 255 255 255 255 255 255 255 255 255 255 255 255
$$ 255 255 255 255 255 255 255 255 255 255 255 255 255 255 255 255 255 255
$$ 255
$$ ##$AQSBDSL= (0..95)
$$ 2 3 4 4 8 12 14 15 255 1 255 255 255 255 255 255 255 255 255 255 255 255
$$ 255 255 255 255 255 255 255 255 255 255 255 255 255 255 255 255 255 255
$$ 255 255 255 255 255 255 255 255 255 255 255 255 255 255 255 255 255 255
$$ 255 255 255 255 255 255 255 255 255 255 255 255 255 255 255 255 255 255
$$ 255 255 255 255 255 255 255 255 255 255 255 255 255 255 255 255 255 255
$$ 255 255
$$ ##$AQSBDTY= (0..95)
$$ 67 214 50 50 5 148 147 145 217 7 255 255 255 255 255 255 255 255 255 255
$$ 255 255 255 255 255 255 255 255 255 255 255 255 255 255 255 255 255 255
$$ 255 255 255 255 255 255 255 255 255 255 255 255 255 255 255 255 255 255
$$ 255 255 255 255 255 255 255 255 255 255 255 255 255 255 255 255 255 255
$$ 255 255 255 255 255 255 255 255 255 255 255 255 255 255 255 255 255 255
$$ 255 255 255 255
$$ ##$AQSBUAD= (0..95)
$$ 16 52 36 37 54 160 161 162 32 32 255 255 255 255 255 255 255 255 255 255
$$ 255 255 255 255 255 255 255 255 255 255 255 255 255 255 255 255 255 255
$$ 255 255 255 255 255 255 255 255 255 255 255 255 255 255 255 255 255 255
$$ 255 255 255 255 255 255 255 255 255 255 255 255 255 255 255 255 255 255
$$ 255 255 255 255 255 255 255 255 255 255 255 255 255 255 255 255 255 255
$$ 255 255 255 255
$$ ##$AQSECL= (0..95)
$$ 0 5 3 3 9 2 0 1 1 255 255 255 255 255 255 255 255 255 255 255 255 255 255
$$ 255 255 255 255 255 255 255 255 255 255 255 255 255 255 255 255 255 255
$$ 255 255 255 255 255 255 255 255 255 255 255 255 255 255 255 255 255 255
$$ 255 255 255 255 255 255 255 255 255 255 255 255 255 255 255 255 255 255
$$ 255 255 255 255 255 255 255 255 255 255 255 255 255 255 255 255 255 255
$$ 255
$$ ##$AQSECLS= (0..95)
$$ 4 1 2 2 2 1 1 2 2 255 255 255 255 255 255 255 255 255 255 255 255 255 255
$$ 255 255 255 255 255 255 255 255 255 255 255 255 255 255 255 255 255 255
$$ 255 255 255 255 255 255 255 255 255 255 255 255 255 255 255 255 255 255
$$ 255 255 255 255 255 255 255 255 255 255 255 255 255 255 255 255 255 255
$$ 255 255 255 255 255 255 255 255 255 255 255 255 255 255 255 255 255 255
$$ 255
$$ ##$AQSETH1= <no>
$$ ##$AQSETH2= <no>
$$ ##$AQSSPLT= no
$$ ##$ATT19F= (0..1)
$$ 0 0
$$ ##$ATT1H= (0..1)
$$ 0 0
$$ ##$ATT3H= (0..1)
$$ 0 0
$$ ##$ATTX= (0..1)
$$ 0 0
$$ ##$ATTY= (0..1)
$$ 0 0
$$ ##$ATTZ= (0..1)
$$ 0 0
$$ ##$BACSAIR= yes
$$ ##$BACSCAP= 0
$$ ##$BACSDEL= 1
$$ ##$BACSFCM= no
$$ ##$BACSOPT= <>
$$ ##$BACSTY= <no>
$$ ##$BARPTY= <no>
$$ ##$BFREQ= 400.13
$$ ##$BGAETH= (0..9)
$$ <no> <no> <no> <no> <no> <no> <no> <no> <no> <no>
$$ ##$BIRDS= yes
$$ ##$BMPC= 0
$$ ##$BMPCTY= <no>
$$ ##$BPSUTY= <no>
$$ ##$BSMS= 2
$$ ##$BSMS19FLock= no
$$ ##$BSMSETH= <149.236.99.20>
$$ ##$BSMSTY= <no>
$$ ##$BgaChFac2= (0..7)
$$ 0 0 0 0 0 0 0 0
$$ ##$BgaChMap= (0..7)
$$ 0 0 0 0 0 0 0 0
$$ ##$BgaChMaxv= (0..7)
$$ 0 0 0 0 0 0 0 0
$$ ##$BgaChRouting= (0..63)
$$ 0 0 0 0 0 0 0 0 0 0 0 0 0 0 0 0 0 0 0 0 0 0 0 0 0 0 0 0 0 0 0 0 0 0 0 0
$$ 0 0 0 0 0 0 0 0 0 0 0 0 0 0 0 0 0 0 0 0 0 0 0 0 0 0 0 0
$$ ##$BgaChShimMap= (0..7)
$$ 0 0 0 0 0 0 0 0
$$ ##$BgaChShimMaxv= (0..7)
$$ 0 0 0 0 0 0 0 0
$$ ##$BlaEth= (0..9)
$$ <no> <149.236.99.20> <no> <no> <no> <no> <no> <no> <> <>
$$ ##$BlaNam= (0..9)
$$ <BLA2BB 150/60 20-400> <BSMS/2 LOCK TRANSCEIVER 400> <> <> <> <> <> <>
$$ <> <>
$$ ##$BlaPN= (0..9)
$$ <W1345049> <Z109888> <> <> <> <> <> <> <> <>
$$ ##$BlaSN= (0..9)
$$ <5376> <02008> <> <> <> <> <> <> <> <>
$$ ##$BsmsAuxEth= <no>
$$ ##$CFASMOD= (0..7)
$$ 1 1 1 1 1 1 1 1
$$ ##$CFASMUL= (0..7)
$$ 1 1 1 1 1 1 1 1
$$ ##$CNFTXDR= (0..7)
$$ 6 6 0 0 0 0 0 0
$$ ##$COMDIG2= 0
$$ ##$CPDBTY= <no>
$$ ##$CRCOTY= <no>
$$ ##$CSW1= (0..31)
$$ 1 1 8 0 0 0 0 0 0 0 0 0 0 0 0 0 0 0 0 0 0 0 0 0 0 0 0 0 0 0 0 0
$$ ##$CSW2= (0..31)
$$ 2 2 0 0 0 0 0 0 0 0 0 0 0 0 0 0 0 0 0 0 0 0 0 0 0 0 0 0 0 0 0 0
$$ ##$CSWNUM= (0..7)
$$ 2 1 0 0 0 0 0 0
$$ ##$ConsolePnSn= <>
$$ ##$CryoProAccPnSn= <>
$$ ##$Ctb1Eth= <no>
$$ ##$CubeEth= (0..7)
$$ <no> <no> <no> <no> <no> <no> <no> <no>
$$ ##$CustRegisterNo= <>
$$ ##$DATSTAT= no
$$ ##$DIGI140= (0..7)
$$ 0 0 0 0 0 0 0 0
$$ ##$DIGIB12= (0..7)
$$ 0 0 0 0 0 0 0 0
$$ ##$DIGIB16= (0..7)
$$ 0 0 0 0 0 0 0 0
$$ ##$DIGIFA= (0..7)
$$ 0 0 0 0 0 0 0 0
$$ ##$DIGIFOURIER= 0
$$ ##$DIGIHA= (0..7)
$$ 0 0 0 0 0 0 0 0
$$ ##$DIGIHAF= (0..7)
$$ 0 0 0 0 0 0 0 0
$$ ##$DIGIHRD= (0..7)
$$ 0 0 0 0 0 0 0 0
$$ ##$DIGIIA= (0..7)
$$ 0 0 0 0 0 0 0 0
$$ ##$DIGIO16= (0..7)
$$ 0 0 0 0 0 0 0 0
$$ ##$DIGISA= (0..7)
$$ 0 0 0 0 0 0 0 0
$$ ##$DIGISAF= (0..7)
$$ 0 0 0 0 0 0 0 0
$$ ##$DIGISL= (0..7)
$$ 0 0 0 0 0 0 0 0
$$ ##$DIGITYI= (0..7)
$$ 0 0 0 0 0 0 0 0
$$ ##$DIGITYP= (0..7)
$$ 0 0 0 0 0 0 0 0
$$ ##$DIGITZ= 0
$$ ##$DPPFAC= 1
$$ ##$DRMSETH= <no>
$$ ##$DRU= yes
$$ ##$DRUETH= (0..33)
$$ <no> <149.236.99.89> <no> <no> <no> <no> <no> <no> <no> <no> <no> <no>
$$ <no> <no> <no> <no> <no> <no> <no> <no> <no> <no> <no> <no> <no> <no> <no>
$$ <no> <no> <no> <no> <no> <no> <no>
$$ ##$Description= <NANOBAY V3-I PLUS 400 MHZ>
$$ ##$DppType= 0
$$ ##$FCUMEM= (0..7)
$$ 16777208 16777208 0 0 0 0 0 0
$$ ##$FCUPAL= (0..7)
$$ 0 0 0 0 0 0 0 0
$$ ##$FGSVTY= <no>
$$ ##$FQMIX= 0
$$ ##$FUNCMOD= <>
$$ ##$FourPeriBdEth= <no>
$$ ##$FourShimBdEth= <no>
$$ ##$FourierPicsCon= no
$$ ##$GCUTYPE= 10
$$ ##$GCUTYPE2= 0
$$ ##$GPREDEL= 0
$$ ##$GPSCUTY= <no>
$$ ##$GRADRES= 5
$$ ##$GTUTY= <no>
$$ ##$GcConn= (0..1)
$$ 1 0
$$ ##$GradAmpGain= (0..7)
$$ 0 0 0 0 0 0 0 0
$$ ##$GradAmpMaxCurX= (0..7)
$$ 0 0 0 0 0 0 0 0
$$ ##$GradAmpMaxCurY= (0..7)
$$ 0 0 0 0 0 0 0 0
$$ ##$GradAmpMaxCurZ= (0..7)
$$ 9.99999904632568 0 0 0 0 0 0 0
$$ ##$GradAmpName= (0..7)
$$ <GAB in BSMS> <> <> <> <> <> <> <>
$$ ##$GradAmpPN= (0..7)
$$ <> <> <> <> <> <> <> <>
$$ ##$GradAmpSN= (0..7)
$$ <> <> <> <> <> <> <> <>
$$ ##$GradAmpType= (0..7)
$$ 2 0 0 0 0 0 0 0
$$ ##$GradPowClkCtrl= 0
$$ ##$GradPowClkTime= 0
$$ ##$GradPowImax= 0
$$ ##$GradPowType= 0
$$ ##$GradPowVmax= 0
$$ ##$HDIETH= (0..5)
$$ <no> <no> <no> <no> <no> <no>
$$ ##$HFAC= 3
$$ ##$HPCU= 0
$$ ##$HPCUTY= <no>
$$ ##$HPTXLP= (0..3)
$$ -1 -1 -1 -1
$$ ##$HPTXPI= (0..3)
$$ 0 0 0 0
$$ ##$HPTXPO= (0..3)
$$ 0 0 0 0
$$ ##$HPTXTY= (0..3)
$$ 0 0 0 0
$$ ##$HpprCoverType= 0
$$ ##$IF451= 0
$$ ##$IFREQ= 1
$$ ##$INJPTY= <no>
$$ ##$INTFPR= 0
$$ ##$IPSOETH= <149.236.99.91>
$$ ##$IPSOTYPE= 2
$$ ##$LDUETH= (0..0)
$$ <no>
$$ ##$LOCKCONF= <DLMT>
$$ ##$LOCKTY= <no>
$$ ##$LOCSWID= 0
$$ ##$LOCSWIF= 0
$$ ##$LVDSSPLITETH= (0..5)
$$ <no> <no> <no> <no> <no> <no>
$$ ##$Location= <>
$$ ##$M2FAC= 0
$$ ##$MAS= 0
$$ ##$MASETIME= 10
$$ ##$MASITIME= 10
$$ ##$MASTY= <no>
$$ ##$MAS_CT= 5
$$ ##$MAS_SG= 0
$$ ##$MAS_TO= 0
$$ ##$MEMPRM= 0
$$ ##$MHFAC= 0
$$ ##$MXFAC= 0
$$ ##$MagnCoilPnSn= <BZH 1005'400'701>
$$ ##$MagnDewarPnSn= <D315'54-9256>
$$ ##$MasEth= <no>
$$ ##$NAMPD= (0..17)
$$ <> <1H/2H 1H> <1H/2H 2H> <XBB19F 2HS> <> <> <> <> <> <> <> <> <> <> <>
$$ <> <> <>
$$ ##$NFCU= 2
$$ ##$NFRED= 0
$$ ##$NMRCH= 2
$$ ##$NMRMEM= 16384
$$ ##$NPSGU= 0
$$ ##$NRCU= 1
$$ ##$NROUT= 1
$$ ##$NSGU= 2
$$ ##$OrderNo= <10237029>
$$ ##$PAMPF1= (0..15)
$$ 75 24 96 64 0 0 0 0 0 0 0 0 0 0 0 0
$$ ##$PAMPF2= (0..15)
$$ 0 0 0 0 0 0 0 0 0 0 0 0 0 0 0 0
$$ ##$PAMPF3= (0..15)
$$ 0 0 0 0 0 0 0 0 0 0 0 0 0 0 0 0
$$ ##$PAMPF4= (0..15)
$$ 0 0 0 0 0 0 0 0 0 0 0 0 0 0 0 0
$$ ##$PAMPF5= (0..15)
$$ 0 0 0 0 0 0 0 0 0 0 0 0 0 0 0 0
$$ ##$PAMPF6= (0..15)
$$ 0 0 0 0 0 0 0 0 0 0 0 0 0 0 0 0
$$ ##$PAMPF7= (0..15)
$$ 0 0 0 0 0 0 0 0 0 0 0 0 0 0 0 0
$$ ##$PAMPF8= (0..15)
$$ 0 0 0 0 0 0 0 0 0 0 0 0 0 0 0 0
$$ ##$PH4= 0
$$ ##$PHF4TY= <no>
$$ ##$POWCHK= yes
$$ ##$PRAMD1= (0..7)
$$ 2 0 0 536870912 0 0 0 0
$$ ##$PRAMD10= (0..7)
$$ 0 0 0 0 0 0 0 0
$$ ##$PRAMD11= (0..7)
$$ 0 0 0 0 0 0 0 0
$$ ##$PRAMD12= (0..7)
$$ 0 0 0 0 0 0 0 0
$$ ##$PRAMD13= (0..7)
$$ 0 0 0 0 0 0 0 0
$$ ##$PRAMD14= (0..7)
$$ 0 0 0 0 0 0 0 0
$$ ##$PRAMD15= (0..7)
$$ 0 0 0 0 0 0 0 0
$$ ##$PRAMD16= (0..7)
$$ 0 0 0 0 0 0 0 0
$$ ##$PRAMD17= (0..7)
$$ 0 0 0 0 0 0 0 0
$$ ##$PRAMD18= (0..7)
$$ 0 0 0 0 0 0 0 0
$$ ##$PRAMD19= (0..7)
$$ 0 0 0 0 0 0 0 0
$$ ##$PRAMD2= (0..7)
$$ 0 1048576 0 536870912 0 1048576 0 536870912
$$ ##$PRAMD20= (0..7)
$$ 0 0 0 0 0 0 0 0
$$ ##$PRAMD21= (0..7)
$$ 0 0 0 0 0 0 0 0
$$ ##$PRAMD3= (0..7)
$$ 2147483644 2131230719 2147483647 603979775 0 0 0 0
$$ ##$PRAMD4= (0..7)
$$ 0 0 0 0 0 0 0 0
$$ ##$PRAMD5= (0..7)
$$ 0 0 0 0 0 0 0 0
$$ ##$PRAMD6= (0..7)
$$ 0 0 0 0 0 0 0 0
$$ ##$PRAMD7= (0..7)
$$ 0 0 0 0 0 0 0 0
$$ ##$PRAMD8= (0..7)
$$ 0 0 0 0 0 0 0 0
$$ ##$PRAMD9= (0..7)
$$ 0 0 0 0 0 0 0 0
$$ ##$PRAMLED= (0..1)
$$ 0 0
$$ ##$PRAMP= (0..9)
$$ <00000000> <tty10> <no> <no> <no> <no> <no> <no> <no> <00000000>
$$ ##$PRAMPTP= 1
$$ ##$PREEMPTYPE= 0
$$ ##$PREPTY= <no>
$$ ##$PREREC= (0..15)
$$ 0 1 1 1 0 0 0 0 0 0 0 0 0 0 0 0
$$ ##$PRESHLD= 0
$$ ##$PTS160= -1
$$ ##$PTSA2X= (0..7)
$$ 0 0 0 0 0 0 0 0
$$ ##$PTSF2X= (0..7)
$$ 0 0 0 0 0 0 0 0
$$ ##$PTSFMX= (0..19)
$$ 649.9 649.9 0 0 0 0 0 0 0 0 0 0 0 0 0 0 0 0 0 0
$$ ##$PULCHK= no
$$ ##$PerMagATempSens= no
$$ ##$PerMagEth= <no>
$$ ##$PerMagFluxSens= no
$$ ##$PerMagMTempSens= no
$$ ##$PramDutyCycPerc= (0..15)
$$ 2 2 2 0 0 0 0 0 0 0 0 0 0 0 0 0
$$ ##$PramPeakPowerW= (0..15)
$$ 150 300 500 0 0 0 0 0 0 0 0 0 0 0 0 0
$$ ##$PramPowerSwitch= (0..15)
$$ 0 0 0 0 0 0 0 0 0 0 0 0 0 0 0 0
$$ ##$PramPulWidthMs= (0..15)
$$ 0.02 0.1 0.1 0 0 0 0 0 0 0 0 0 0 0 0 0
$$ ##$PreampModBisDat= (0..15)
$$ 20160811 20160811 20160901 0 0 0 0 0 0 0 0 0 0 0 0 0
$$ ##$PreampModPN= (0..17)
$$ <Z128274> <Z128274> <Z128143> <> <> <> <> <> <> <> <> <> <> <> <> <> <>
$$ <>
$$ ##$PreampModSN= (0..17)
$$ <00930> <00930> <00926> <> <> <> <> <> <> <> <> <> <> <> <> <> <> <>
$$ ##$ProdigyEth= <no>
$$ ##$RCUCDS= (0..7)
$$ 0 0 0 0 0 0 0 0
$$ ##$RCUCFS= (0..7)
$$ 0 0 0 0 0 0 0 0
$$ ##$RCUCSS= (0..7)
$$ 0 0 0 0 0 0 0 0
$$ ##$RCUI2C1= (0..7)
$$ 0 0 0 0 0 0 0 0
$$ ##$RCUI2C2= (0..7)
$$ 0 0 0 0 0 0 0 0
$$ ##$RCUI2C3= (0..7)
$$ 0 0 0 0 0 0 0 0
$$ ##$RCUI2C4= (0..7)
$$ 0 0 0 0 0 0 0 0
$$ ##$RCUI2C5= (0..7)
$$ 0 0 0 0 0 0 0 0
$$ ##$RCUI2C6= (0..7)
$$ 0 0 0 0 0 0 0 0
$$ ##$RCUI2C7= (0..7)
$$ 0 0 0 0 0 0 0 0
$$ ##$RCUI2C8= (0..7)
$$ 0 0 0 0 0 0 0 0
$$ ##$RDCU= 0
$$ ##$RFSINPUT= (0..1)
$$ 0 0
$$ ##$RFSVTY= <no>
$$ ##$RGTYPE= (0..31)
$$ 9 0 0 0 0 0 0 0 0 0 0 0 0 0 0 0 0 0 0 0 0 0 0 0 0 0 0 0 0 0 0 0
$$ ##$RG_max= (0..31)
$$ 203 -1 -1 -1 -1 -1 -1 -1 -1 -1 -1 -1 -1 -1 -1 -1 -1 -1 -1 -1 -1 -1 -1 -1
$$ -1 -1 -1 -1 -1 -1 -1 -1
$$ ##$RG_min= (0..31)
$$ 0.25 -1 -1 -1 -1 -1 -1 -1 -1 -1 -1 -1 -1 -1 -1 -1 -1 -1 -1 -1 -1 -1 -1
$$ -1 -1 -1 -1 -1 -1 -1 -1 -1
$$ ##$RG_tab1= (0..255)
$$ 0.25 0.28 0.32 0.35 0.4 0.44 0.5 0.56 0.64 0.7 0.8 0.89 1 1.12 1.28 1.4
$$ 1.6 1.78 2 2.25 2.56 2.8 3.2 3.56 4 4.5 5 5.6 6.35 7.12 8 9 10 11.3 12.7
$$ 14.2 16 18 20.2 22.6 25.4 28.5 32 36 40.3 45.2 50.8 57 64 71.8 80.6 90.5
$$ 101 114 128 144 161 181 203 -1 -1 -1 -1 -1 -1 -1 -1 -1 -1 -1 -1 -1 -1 -1
$$ -1 -1 -1 -1 -1 -1 -1 -1 -1 -1 -1 -1 -1 -1 -1 -1 -1 -1 -1 -1 -1 -1 -1 -1
$$ -1 -1 -1 -1 -1 -1 -1 -1 -1 -1 -1 -1 -1 -1 -1 -1 -1 -1 -1 -1 -1 -1 -1 -1
$$ -1 -1 -1 -1 -1 -1 -1 -1 -1 -1 -1 -1 -1 -1 -1 -1 -1 -1 -1 -1 -1 -1 -1 -1
$$ -1 -1 -1 -1 -1 -1 -1 -1 -1 -1 -1 -1 -1 -1 -1 -1 -1 -1 -1 -1 -1 -1 -1 -1
$$ -1 -1 -1 -1 -1 -1 -1 -1 -1 -1 -1 -1 -1 -1 -1 -1 -1 -1 -1 -1 -1 -1 -1 -1
$$ -1 -1 -1 -1 -1 -1 -1 -1 -1 -1 -1 -1 -1 -1 -1 -1 -1 -1 -1 -1 -1 -1 -1 -1
$$ -1 -1 -1 -1 -1 -1 -1 -1 -1 -1 -1 -1 -1 -1 -1 -1 -1 -1 -1 -1 -1 -1 -1 -1
$$ -1 -1 -1 -1 -1 -1 -1 -1 -1 -1 -1 -1 -1 -1
$$ ##$RG_tab2= (0..255)
$$ -1 -1 -1 -1 -1 -1 -1 -1 -1 -1 -1 -1 -1 -1 -1 -1 -1 -1 -1 -1 -1 -1 -1 -1
$$ -1 -1 -1 -1 -1 -1 -1 -1 -1 -1 -1 -1 -1 -1 -1 -1 -1 -1 -1 -1 -1 -1 -1 -1
$$ -1 -1 -1 -1 -1 -1 -1 -1 -1 -1 -1 -1 -1 -1 -1 -1 -1 -1 -1 -1 -1 -1 -1 -1
$$ -1 -1 -1 -1 -1 -1 -1 -1 -1 -1 -1 -1 -1 -1 -1 -1 -1 -1 -1 -1 -1 -1 -1 -1
$$ -1 -1 -1 -1 -1 -1 -1 -1 -1 -1 -1 -1 -1 -1 -1 -1 -1 -1 -1 -1 -1 -1 -1 -1
$$ -1 -1 -1 -1 -1 -1 -1 -1 -1 -1 -1 -1 -1 -1 -1 -1 -1 -1 -1 -1 -1 -1 -1 -1
$$ -1 -1 -1 -1 -1 -1 -1 -1 -1 -1 -1 -1 -1 -1 -1 -1 -1 -1 -1 -1 -1 -1 -1 -1
$$ -1 -1 -1 -1 -1 -1 -1 -1 -1 -1 -1 -1 -1 -1 -1 -1 -1 -1 -1 -1 -1 -1 -1 -1
$$ -1 -1 -1 -1 -1 -1 -1 -1 -1 -1 -1 -1 -1 -1 -1 -1 -1 -1 -1 -1 -1 -1 -1 -1
$$ -1 -1 -1 -1 -1 -1 -1 -1 -1 -1 -1 -1 -1 -1 -1 -1 -1 -1 -1 -1 -1 -1 -1 -1
$$ -1 -1 -1 -1 -1 -1 -1 -1 -1 -1 -1 -1 -1 -1 -1 -1
$$ ##$RG_tab3= (0..255)
$$ -1 -1 -1 -1 -1 -1 -1 -1 -1 -1 -1 -1 -1 -1 -1 -1 -1 -1 -1 -1 -1 -1 -1 -1
$$ -1 -1 -1 -1 -1 -1 -1 -1 -1 -1 -1 -1 -1 -1 -1 -1 -1 -1 -1 -1 -1 -1 -1 -1
$$ -1 -1 -1 -1 -1 -1 -1 -1 -1 -1 -1 -1 -1 -1 -1 -1 -1 -1 -1 -1 -1 -1 -1 -1
$$ -1 -1 -1 -1 -1 -1 -1 -1 -1 -1 -1 -1 -1 -1 -1 -1 -1 -1 -1 -1 -1 -1 -1 -1
$$ -1 -1 -1 -1 -1 -1 -1 -1 -1 -1 -1 -1 -1 -1 -1 -1 -1 -1 -1 -1 -1 -1 -1 -1
$$ -1 -1 -1 -1 -1 -1 -1 -1 -1 -1 -1 -1 -1 -1 -1 -1 -1 -1 -1 -1 -1 -1 -1 -1
$$ -1 -1 -1 -1 -1 -1 -1 -1 -1 -1 -1 -1 -1 -1 -1 -1 -1 -1 -1 -1 -1 -1 -1 -1
$$ -1 -1 -1 -1 -1 -1 -1 -1 -1 -1 -1 -1 -1 -1 -1 -1 -1 -1 -1 -1 -1 -1 -1 -1
$$ -1 -1 -1 -1 -1 -1 -1 -1 -1 -1 -1 -1 -1 -1 -1 -1 -1 -1 -1 -1 -1 -1 -1 -1
$$ -1 -1 -1 -1 -1 -1 -1 -1 -1 -1 -1 -1 -1 -1 -1 -1 -1 -1 -1 -1 -1 -1 -1 -1
$$ -1 -1 -1 -1 -1 -1 -1 -1 -1 -1 -1 -1 -1 -1 -1 -1
$$ ##$RG_tab4= (0..255)
$$ -1 -1 -1 -1 -1 -1 -1 -1 -1 -1 -1 -1 -1 -1 -1 -1 -1 -1 -1 -1 -1 -1 -1 -1
$$ -1 -1 -1 -1 -1 -1 -1 -1 -1 -1 -1 -1 -1 -1 -1 -1 -1 -1 -1 -1 -1 -1 -1 -1
$$ -1 -1 -1 -1 -1 -1 -1 -1 -1 -1 -1 -1 -1 -1 -1 -1 -1 -1 -1 -1 -1 -1 -1 -1
$$ -1 -1 -1 -1 -1 -1 -1 -1 -1 -1 -1 -1 -1 -1 -1 -1 -1 -1 -1 -1 -1 -1 -1 -1
$$ -1 -1 -1 -1 -1 -1 -1 -1 -1 -1 -1 -1 -1 -1 -1 -1 -1 -1 -1 -1 -1 -1 -1 -1
$$ -1 -1 -1 -1 -1 -1 -1 -1 -1 -1 -1 -1 -1 -1 -1 -1 -1 -1 -1 -1 -1 -1 -1 -1
$$ -1 -1 -1 -1 -1 -1 -1 -1 -1 -1 -1 -1 -1 -1 -1 -1 -1 -1 -1 -1 -1 -1 -1 -1
$$ -1 -1 -1 -1 -1 -1 -1 -1 -1 -1 -1 -1 -1 -1 -1 -1 -1 -1 -1 -1 -1 -1 -1 -1
$$ -1 -1 -1 -1 -1 -1 -1 -1 -1 -1 -1 -1 -1 -1 -1 -1 -1 -1 -1 -1 -1 -1 -1 -1
$$ -1 -1 -1 -1 -1 -1 -1 -1 -1 -1 -1 -1 -1 -1 -1 -1 -1 -1 -1 -1 -1 -1 -1 -1
$$ -1 -1 -1 -1 -1 -1 -1 -1 -1 -1 -1 -1 -1 -1 -1 -1
$$ ##$RG_tab5= (0..255)
$$ -1 -1 -1 -1 -1 -1 -1 -1 -1 -1 -1 -1 -1 -1 -1 -1 -1 -1 -1 -1 -1 -1 -1 -1
$$ -1 -1 -1 -1 -1 -1 -1 -1 -1 -1 -1 -1 -1 -1 -1 -1 -1 -1 -1 -1 -1 -1 -1 -1
$$ -1 -1 -1 -1 -1 -1 -1 -1 -1 -1 -1 -1 -1 -1 -1 -1 -1 -1 -1 -1 -1 -1 -1 -1
$$ -1 -1 -1 -1 -1 -1 -1 -1 -1 -1 -1 -1 -1 -1 -1 -1 -1 -1 -1 -1 -1 -1 -1 -1
$$ -1 -1 -1 -1 -1 -1 -1 -1 -1 -1 -1 -1 -1 -1 -1 -1 -1 -1 -1 -1 -1 -1 -1 -1
$$ -1 -1 -1 -1 -1 -1 -1 -1 -1 -1 -1 -1 -1 -1 -1 -1 -1 -1 -1 -1 -1 -1 -1 -1
$$ -1 -1 -1 -1 -1 -1 -1 -1 -1 -1 -1 -1 -1 -1 -1 -1 -1 -1 -1 -1 -1 -1 -1 -1
$$ -1 -1 -1 -1 -1 -1 -1 -1 -1 -1 -1 -1 -1 -1 -1 -1 -1 -1 -1 -1 -1 -1 -1 -1
$$ -1 -1 -1 -1 -1 -1 -1 -1 -1 -1 -1 -1 -1 -1 -1 -1 -1 -1 -1 -1 -1 -1 -1 -1
$$ -1 -1 -1 -1 -1 -1 -1 -1 -1 -1 -1 -1 -1 -1 -1 -1 -1 -1 -1 -1 -1 -1 -1 -1
$$ -1 -1 -1 -1 -1 -1 -1 -1 -1 -1 -1 -1 -1 -1 -1 -1
$$ ##$RG_tab6= (0..255)
$$ -1 -1 -1 -1 -1 -1 -1 -1 -1 -1 -1 -1 -1 -1 -1 -1 -1 -1 -1 -1 -1 -1 -1 -1
$$ -1 -1 -1 -1 -1 -1 -1 -1 -1 -1 -1 -1 -1 -1 -1 -1 -1 -1 -1 -1 -1 -1 -1 -1
$$ -1 -1 -1 -1 -1 -1 -1 -1 -1 -1 -1 -1 -1 -1 -1 -1 -1 -1 -1 -1 -1 -1 -1 -1
$$ -1 -1 -1 -1 -1 -1 -1 -1 -1 -1 -1 -1 -1 -1 -1 -1 -1 -1 -1 -1 -1 -1 -1 -1
$$ -1 -1 -1 -1 -1 -1 -1 -1 -1 -1 -1 -1 -1 -1 -1 -1 -1 -1 -1 -1 -1 -1 -1 -1
$$ -1 -1 -1 -1 -1 -1 -1 -1 -1 -1 -1 -1 -1 -1 -1 -1 -1 -1 -1 -1 -1 -1 -1 -1
$$ -1 -1 -1 -1 -1 -1 -1 -1 -1 -1 -1 -1 -1 -1 -1 -1 -1 -1 -1 -1 -1 -1 -1 -1
$$ -1 -1 -1 -1 -1 -1 -1 -1 -1 -1 -1 -1 -1 -1 -1 -1 -1 -1 -1 -1 -1 -1 -1 -1
$$ -1 -1 -1 -1 -1 -1 -1 -1 -1 -1 -1 -1 -1 -1 -1 -1 -1 -1 -1 -1 -1 -1 -1 -1
$$ -1 -1 -1 -1 -1 -1 -1 -1 -1 -1 -1 -1 -1 -1 -1 -1 -1 -1 -1 -1 -1 -1 -1 -1
$$ -1 -1 -1 -1 -1 -1 -1 -1 -1 -1 -1 -1 -1 -1 -1 -1
$$ ##$RG_tab7= (0..255)
$$ -1 -1 -1 -1 -1 -1 -1 -1 -1 -1 -1 -1 -1 -1 -1 -1 -1 -1 -1 -1 -1 -1 -1 -1
$$ -1 -1 -1 -1 -1 -1 -1 -1 -1 -1 -1 -1 -1 -1 -1 -1 -1 -1 -1 -1 -1 -1 -1 -1
$$ -1 -1 -1 -1 -1 -1 -1 -1 -1 -1 -1 -1 -1 -1 -1 -1 -1 -1 -1 -1 -1 -1 -1 -1
$$ -1 -1 -1 -1 -1 -1 -1 -1 -1 -1 -1 -1 -1 -1 -1 -1 -1 -1 -1 -1 -1 -1 -1 -1
$$ -1 -1 -1 -1 -1 -1 -1 -1 -1 -1 -1 -1 -1 -1 -1 -1 -1 -1 -1 -1 -1 -1 -1 -1
$$ -1 -1 -1 -1 -1 -1 -1 -1 -1 -1 -1 -1 -1 -1 -1 -1 -1 -1 -1 -1 -1 -1 -1 -1
$$ -1 -1 -1 -1 -1 -1 -1 -1 -1 -1 -1 -1 -1 -1 -1 -1 -1 -1 -1 -1 -1 -1 -1 -1
$$ -1 -1 -1 -1 -1 -1 -1 -1 -1 -1 -1 -1 -1 -1 -1 -1 -1 -1 -1 -1 -1 -1 -1 -1
$$ -1 -1 -1 -1 -1 -1 -1 -1 -1 -1 -1 -1 -1 -1 -1 -1 -1 -1 -1 -1 -1 -1 -1 -1
$$ -1 -1 -1 -1 -1 -1 -1 -1 -1 -1 -1 -1 -1 -1 -1 -1 -1 -1 -1 -1 -1 -1 -1 -1
$$ -1 -1 -1 -1 -1 -1 -1 -1 -1 -1 -1 -1 -1 -1 -1 -1
$$ ##$RG_tab8= (0..255)
$$ -1 -1 -1 -1 -1 -1 -1 -1 -1 -1 -1 -1 -1 -1 -1 -1 -1 -1 -1 -1 -1 -1 -1 -1
$$ -1 -1 -1 -1 -1 -1 -1 -1 -1 -1 -1 -1 -1 -1 -1 -1 -1 -1 -1 -1 -1 -1 -1 -1
$$ -1 -1 -1 -1 -1 -1 -1 -1 -1 -1 -1 -1 -1 -1 -1 -1 -1 -1 -1 -1 -1 -1 -1 -1
$$ -1 -1 -1 -1 -1 -1 -1 -1 -1 -1 -1 -1 -1 -1 -1 -1 -1 -1 -1 -1 -1 -1 -1 -1
$$ -1 -1 -1 -1 -1 -1 -1 -1 -1 -1 -1 -1 -1 -1 -1 -1 -1 -1 -1 -1 -1 -1 -1 -1
$$ -1 -1 -1 -1 -1 -1 -1 -1 -1 -1 -1 -1 -1 -1 -1 -1 -1 -1 -1 -1 -1 -1 -1 -1
$$ -1 -1 -1 -1 -1 -1 -1 -1 -1 -1 -1 -1 -1 -1 -1 -1 -1 -1 -1 -1 -1 -1 -1 -1
$$ -1 -1 -1 -1 -1 -1 -1 -1 -1 -1 -1 -1 -1 -1 -1 -1 -1 -1 -1 -1 -1 -1 -1 -1
$$ -1 -1 -1 -1 -1 -1 -1 -1 -1 -1 -1 -1 -1 -1 -1 -1 -1 -1 -1 -1 -1 -1 -1 -1
$$ -1 -1 -1 -1 -1 -1 -1 -1 -1 -1 -1 -1 -1 -1 -1 -1 -1 -1 -1 -1 -1 -1 -1 -1
$$ -1 -1 -1 -1 -1 -1 -1 -1 -1 -1 -1 -1 -1 -1 -1 -1
$$ ##$RG_tabA= (0..255)
$$ 0.25 0.28 0.32 0.35 0.4 0.44 0.5 0.56 0.64 0.7 0.8 0.89 1 1.12 1.28 1.4
$$ 1.6 1.78 2 2.25 2.56 2.8 3.2 3.56 4 4.5 5 5.6 6.35 7.12 8 9 10 11.3 12.7
$$ 14.2 16 18 20.2 22.6 25.4 28.5 32 36 40.3 45.2 50.8 57 64 71.8 80.6 90.5
$$ 101 114 128 144 161 181 203 -1 -1 -1 -1 -1 -1 -1 -1 -1 -1 -1 -1 -1 -1 -1
$$ -1 -1 -1 -1 -1 -1 -1 -1 -1 -1 -1 -1 -1 -1 -1 -1 -1 -1 -1 -1 -1 -1 -1 -1
$$ -1 -1 -1 -1 -1 -1 -1 -1 -1 -1 -1 -1 -1 -1 -1 -1 -1 -1 -1 -1 -1 -1 -1 -1
$$ -1 -1 -1 -1 -1 -1 -1 -1 -1 -1 -1 -1 -1 -1 -1 -1 -1 -1 -1 -1 -1 -1 -1 -1
$$ -1 -1 -1 -1 -1 -1 -1 -1 -1 -1 -1 -1 -1 -1 -1 -1 -1 -1 -1 -1 -1 -1 -1 -1
$$ -1 -1 -1 -1 -1 -1 -1 -1 -1 -1 -1 -1 -1 -1 -1 -1 -1 -1 -1 -1 -1 -1 -1 -1
$$ -1 -1 -1 -1 -1 -1 -1 -1 -1 -1 -1 -1 -1 -1 -1 -1 -1 -1 -1 -1 -1 -1 -1 -1
$$ -1 -1 -1 -1 -1 -1 -1 -1 -1 -1 -1 -1 -1 -1 -1 -1 -1 -1 -1 -1 -1 -1 -1 -1
$$ -1 -1 -1 -1 -1 -1 -1 -1 -1 -1 -1 -1 -1 -1
$$ ##$ROBOTTY= <no>
$$ ##$ROUT14= (0..7)
$$ 0 0 0 0 0 0 0 0
$$ ##$ROUTER= 3
$$ ##$RX22TY= <no>
$$ ##$RXFMAX= (0..7)
$$ 647.5 -1 -1 -1 -1 -1 -1 -1
$$ ##$RXFMIN= (0..7)
$$ 5 -1 -1 -1 -1 -1 -1 -1
$$ ##$RXINTLV= (0..7)
$$ 1 0 0 0 0 0 0 0
$$ ##$RXMSTY= <no>
$$ ##$RockSwitchEth= <no>
$$ ##$SCMTY= <no>
$$ ##$SGUC1= (0..15)
$$ 17 18 0 0 0 0 0 0 0 0 0 0 0 0 0 0
$$ ##$SGUC2= (0..15)
$$ 33 256 0 0 0 0 0 0 0 0 0 0 0 0 0 0
$$ ##$SLCBCONF= <SHNV>
$$ ##$SPECTR= 10
$$ ##$SY2FLAG= 0
$$ ##$SYNCTRIG= 11
$$ ##$SamChgEth= (0..3)
$$ <149.236.99.52> <no> <no> <no>
$$ ##$ServiceNo= <>
$$ ##$Sgu1PowerLevels= (0..7)
$$ 90 74 58 42 26 10 0 0
$$ ##$Sgu2PowerLevels= (0..7)
$$ 90 74 58 42 26 10 0 0
$$ ##$Sgu3PowerLevels= (0..7)
$$ 0 0 0 0 0 0 0 0
$$ ##$Sgu4PowerLevels= (0..7)
$$ 0 0 0 0 0 0 0 0
$$ ##$Sgu5PowerLevels= (0..7)
$$ 0 0 0 0 0 0 0 0
$$ ##$Sgu6PowerLevels= (0..7)
$$ 0 0 0 0 0 0 0 0
$$ ##$Sgu7PowerLevels= (0..7)
$$ 0 0 0 0 0 0 0 0
$$ ##$Sgu8PowerLevels= (0..7)
$$ 0 0 0 0 0 0 0 0
$$ ##$SguType= 3
$$ ##$ShimMaxVal= 32760
$$ ##$ShimPow1Ch2Sh= (0..38)
$$ 0 0 0 0 0 0 0 0 0 0 0 0 0 0 0 0 0 0 0 0 0 0 0 0 0 0 0 0 0 0 0 0 0 0 0 0
$$ 0 0 0
$$ ##$ShimPow1Imax= (0..38)
$$ 0 0 0 0 0 0 0 0 0 0 0 0 0 0 0 0 0 0 0 0 0 0 0 0 0 0 0 0 0 0 0 0 0 0 0 0
$$ 0 0 0
$$ ##$ShimPow1NChan= 0
$$ ##$ShimPow1TotIMax= 0
$$ ##$ShimPow1Vmax= (0..38)
$$ 0 0 0 0 0 0 0 0 0 0 0 0 0 0 0 0 0 0 0 0 0 0 0 0 0 0 0 0 0 0 0 0 0 0 0 0
$$ 0 0 0
$$ ##$ShimPow2Ch2Sh= (0..38)
$$ 0 0 0 0 0 0 0 0 0 0 0 0 0 0 0 0 0 0 0 0 0 0 0 0 0 0 0 0 0 0 0 0 0 0 0 0
$$ 0 0 0
$$ ##$ShimPow2Imax= (0..38)
$$ 0 0 0 0 0 0 0 0 0 0 0 0 0 0 0 0 0 0 0 0 0 0 0 0 0 0 0 0 0 0 0 0 0 0 0 0
$$ 0 0 0
$$ ##$ShimPow2NChan= 0
$$ ##$ShimPow2TotIMax= 0
$$ ##$ShimPow2Vmax= (0..38)
$$ 0 0 0 0 0 0 0 0 0 0 0 0 0 0 0 0 0 0 0 0 0 0 0 0 0 0 0 0 0 0 0 0 0 0 0 0
$$ 0 0 0
$$ ##$ShimPow3Ch2Sh= (0..38)
$$ 0 0 0 0 0 0 0 0 0 0 0 0 0 0 0 0 0 0 0 0 0 0 0 0 0 0 0 0 0 0 0 0 0 0 0 0
$$ 0 0 0
$$ ##$ShimPow3Imax= (0..38)
$$ 0 0 0 0 0 0 0 0 0 0 0 0 0 0 0 0 0 0 0 0 0 0 0 0 0 0 0 0 0 0 0 0 0 0 0 0
$$ 0 0 0
$$ ##$ShimPow3NChan= 0
$$ ##$ShimPow3TotIMax= 0
$$ ##$ShimPow3Vmax= (0..38)
$$ 0 0 0 0 0 0 0 0 0 0 0 0 0 0 0 0 0 0 0 0 0 0 0 0 0 0 0 0 0 0 0 0 0 0 0 0
$$ 0 0 0
$$ ##$ShimPow4Ch2Sh= (0..38)
$$ 0 0 0 0 0 0 0 0 0 0 0 0 0 0 0 0 0 0 0 0 0 0 0 0 0 0 0 0 0 0 0 0 0 0 0 0
$$ 0 0 0
$$ ##$ShimPow4Imax= (0..38)
$$ 0 0 0 0 0 0 0 0 0 0 0 0 0 0 0 0 0 0 0 0 0 0 0 0 0 0 0 0 0 0 0 0 0 0 0 0
$$ 0 0 0
$$ ##$ShimPow4NChan= 0
$$ ##$ShimPow4TotIMax= 0
$$ ##$ShimPow4Vmax= (0..38)
$$ 0 0 0 0 0 0 0 0 0 0 0 0 0 0 0 0 0 0 0 0 0 0 0 0 0 0 0 0 0 0 0 0 0 0 0 0
$$ 0 0 0
$$ ##$ShimPowMaxUA= (0..63)
$$ 130000 130000 130000 130000 130000 130000 130000 130000 130000 130000 130000
$$ 130000 130000 130000 130000 130000 130000 130000 130000 130000 130000 130000
$$ 130000 130000 130000 130000 130000 130000 130000 130000 130000 130000 130000
$$ 130000 130000 130000 130000 130000 130000 130000 0 0 0 0 0 0 0 0 0 0 0
$$ 0 0 0 0 0 0 0 0 0 0 0 0 0
$$ ##$ShimPowMaxUC= (0..63)
$$ 130000 130000 130000 130000 130000 130000 130000 130000 130000 130000 130000
$$ 130000 130000 130000 130000 130000 130000 130000 130000 130000 130000 130000
$$ 130000 130000 130000 130000 130000 130000 130000 130000 130000 130000 130000
$$ 130000 130000 130000 130000 130000 130000 130000 0 0 0 0 0 0 0 0 0 0 0
$$ 0 0 0 0 0 0 0 0 0 0 0 0 0
$$ ##$ShimPowMaxUG= (0..63)
$$ 524287 524287 524287 524287 524287 524287 524287 524287 524287 524287 524287
$$ 524287 524287 524287 524287 524287 524287 524287 524287 524287 524287 524287
$$ 524287 524287 524287 524287 524287 524287 524287 524287 524287 524287 524287
$$ 524287 524287 524287 524287 524287 524287 0 0 0 0 0 0 0 0 0 0 0 0 0 0 0
$$ 0 0 0 0 0 0 0 0 0 0
$$ ##$ShimPowNum= 0
$$ ##$ShimPowRcbType= 3
$$ ##$ShimPowRes= (0..63)
$$ 1e-20 1e-20 1e-20 1e-20 1e-20 1e-20 1e-20 1e-20 1e-20 1e-20 1e-20 1e-20
$$ 1e-20 1e-20 1e-20 1e-20 1e-20 1e-20 1e-20 1e-20 1e-20 1e-20 1e-20 1e-20
$$ 1e-20 1e-20 1e-20 1e-20 1e-20 1e-20 1e-20 1e-20 1e-20 1e-20 1e-20 1e-20
$$ 1e-20 1e-20 1e-20 1e-20 0 0 0 0 0 0 0 0 0 0 0 0 0 0 0 0 0 0 0 0 0 0 0 0
$$ ##$ShimPowRng0= (0..63)
$$ 1 1 1 1 1 1 1 1 1 1 1 1 1 1 1 1 1 1 1 1 1 1 1 1 1 1 1 1 1 1 1 1 1 1 1 1
$$ 1 1 1 1 0 0 0 0 0 0 0 0 0 0 0 0 0 0 0 0 0 0 0 0 0 0 0 0
$$ ##$ShimPowRng1= (0..63)
$$ 1 1 1 1 1 1 1 1 1 1 1 1 1 1 1 1 1 1 1 1 1 1 1 1 1 1 1 1 1 1 1 1 1 1 1 1
$$ 1 1 1 1 0 0 0 0 0 0 0 0 0 0 0 0 0 0 0 0 0 0 0 0 0 0 0 0
$$ ##$ShimPowRng2= (0..63)
$$ 1 1 1 1 1 1 1 1 1 1 1 1 1 1 1 1 1 1 1 1 1 1 1 1 1 1 1 1 1 1 1 1 1 1 1 1
$$ 1 1 1 1 0 0 0 0 0 0 0 0 0 0 0 0 0 0 0 0 0 0 0 0 0 0 0 0
$$ ##$ShimPowRng3= (0..63)
$$ 1 1 1 1 1 1 1 1 1 1 1 1 1 1 1 1 1 1 1 1 1 1 1 1 1 1 1 1 1 1 1 1 1 1 1 1
$$ 1 1 1 1 0 0 0 0 0 0 0 0 0 0 0 0 0 0 0 0 0 0 0 0 0 0 0 0
$$ ##$ShimPowType1= 0
$$ ##$ShimPowType2= 0
$$ ##$ShimPowType3= 0
$$ ##$ShimPowType4= 0
$$ ##$ShimSysAngle= <>
$$ ##$ShimSysFunc= (0..63)
$$ 1 2 3 4 5 6 7 8 9 10 0 37 38 35 16 15 14 13 12 11 28 27 26 25 24 23 36
$$ 22 30 29 20 21 34 33 32 31 17 18 19 0 0 0 0 0 0 0 0 0 0 0 0 0 0 0 0 0 0
$$ 0 0 0 0 0 0 0
$$ ##$ShimSysMatId= <no>
$$ ##$ShimSysMatrix= 1
$$ ##$ShimSysOffset= <35>
$$ ##$ShimSysType= 4
$$ ##$ShimUnit= 0
$$ ##$TFXNUM= 0
$$ ##$TOSITY= <no>
$$ ##$TRIPLO2= 0
$$ ##$VTU= 2
$$ ##$VTUETH= <149.236.99.20>
$$ ##$VTUTY= <no>
$$ ##$WBREFAM= (0..15)
$$ 131.6 89.2 100 100 100 100 100 100 100 100 100 100 100 100 100 100
$$ ##$WBREFLM= (0..15)
$$ 0 0 0 0 0 0 0 0 0 0 0 0 0 0 0 0
$$ ##$WBREFPH= (0..15)
$$ 78.82 -69.31 0 0 0 0 0 0 0 0 0 0 0 0 0 0
$$ ##$WBSGU= (0..15)
$$ 0 0 0 0 0 0 0 0 0 0 0 0 0 0 0 0
$$ ##$XFAC= 2
$$ ##END=
##$RELAX= 
##$BRUKER FILE PROC=intrng
$$ P 0
$$ 119.336926   118.639909
$$ 40.826805   39.034476
##$RELAX= 
##$BRUKER FILE PROC=parm.txt
$$ 
$$ Current Data Parameters
$$ NAME             PH-771              
$$ EXPNO                31              
$$ PROCNO                1              
$$ 
$$ F2 - Acquisition Parameters
$$ Date_          20180710              
$$ Time               7.55 h            
$$ INSTRUM           spect              
$$ PROBHD   Z116098_0570 (              
$$ PULPROG          zgpg30              
$$ TD                65536              
$$ SOLVENT            DMSO              
$$ NS                 1024              
$$ DS                    4              
$$ SWH           25252.525 Hz           
$$ FIDRES         0.770646 Hz           
$$ AQ            1.2976128 sec          
$$ RG               201.15              
$$ DW               19.800 usec         
$$ DE                 6.50 usec         
$$ TE                300.0 K            
$$ D1           2.00000000 sec          
$$ D11          0.03000000 sec          
$$ TD0                   1              
$$ SFO1        100.6238359 MHz          
$$ NUC1                13C              
$$ P1                10.00 usec         
$$ PLW1        71.50800323 W            
$$ SFO2        400.1316005 MHz          
$$ NUC2                 1H              
$$ CPDPRG[2        waltz16              
$$ PCPD2             90.00 usec         
$$ PLW2        15.16199970 W            
$$ PLW12        0.18719000 W            
$$ PLW13        0.09415300 W            
$$ 
$$ F2 - Processing parameters
$$ SI                32768              
$$ SF          100.6127685 MHz          
$$ WDW                  EM              
$$ SSB      0              
$$ LB                 1.00 Hz           
$$ GB       0              
$$ PC                 1.40              
##$RELAX= 
##$BRUKER FILE PROC=peaklist.xml
$$ <?xml version="1.0" encoding="UTF-8"?>
$$ <PeakList>
$$   <PeakList1D>
$$     <PeakList1DHeader creator="nmr" date="2018-07-10T07:55:17.643+02:00" expNo="31" name="PH-771" owner="" procNo="1" source="/opt/topspin3.5pl6/data/complat/nmr/data/PH/nmr">
$$       <PeakPickDetails>F1=235.493607ppm, F2=-15.493675ppm, MI=0.00cm, MAXI=10000.00cm, PC=1.400
$$       </PeakPickDetails>
$$     </PeakList1DHeader>
$$     <Peak1D F1="167.220383" intensity="7.358292e+00" type="0"/>
$$     <Peak1D F1="164.299988" intensity="4.848745e+00" type="0"/>
$$     <Peak1D F1="136.673141" intensity="9.178463e+00" type="0"/>
$$     <Peak1D F1="127.314476" intensity="9.097609e+00" type="0"/>
$$     <Peak1D F1="125.430466" intensity="7.081331e-01" type="0"/>
$$     <Peak1D F1="124.878464" intensity="1.428366e+01" type="0"/>
$$     <Peak1D F1="122.635231" intensity="1.961766e+00" type="0"/>
$$     <Peak1D F1="121.719345" intensity="1.291924e+01" type="0"/>
$$     <Peak1D F1="119.839890" intensity="1.545869e+00" type="0"/>
$$     <Peak1D F1="119.111389" intensity="1.500000e+01" type="0"/>
$$     <Peak1D F1="118.918633" intensity="1.352229e+01" type="0"/>
$$     <Peak1D F1="117.042328" intensity="5.136405e-01" type="0"/>
$$     <Peak1D F1="112.014786" intensity="1.264536e+01" type="0"/>
$$     <Peak1D F1="106.319427" intensity="1.224372e+01" type="0"/>
$$     <Peak1D F1="93.055153" intensity="1.413911e+00" type="0"/>
$$     <Peak1D F1="92.722206" intensity="4.380019e+00" type="0"/>
$$     <Peak1D F1="92.387535" intensity="4.541282e+00" type="0"/>
$$     <Peak1D F1="92.053688" intensity="1.435574e+00" type="0"/>
$$     <Peak1D F1="40.611217" intensity="9.329454e+00" type="0"/>
$$     <Peak1D F1="40.402554" intensity="2.891496e+01" type="0"/>
$$     <Peak1D F1="40.194012" intensity="5.748614e+01" type="0"/>
$$     <Peak1D F1="39.985306" intensity="6.722839e+01" type="0"/>
$$     <Peak1D F1="39.776344" intensity="5.717701e+01" type="0"/>
$$     <Peak1D F1="39.567711" intensity="2.866923e+01" type="0"/>
$$     <Peak1D F1="39.359215" intensity="9.448606e+00" type="0"/>
$$     <Peak1D F1="26.812225" intensity="6.678556e-01" type="0"/>
$$     <Peak1D F1="24.865269" intensity="1.192252e+01" type="0"/>
$$   </PeakList1D>
$$ </PeakList>
##$RELAX= 
##$BRUKER FILE PROC=peakrng
$$ P    #regions in PPM
$$ # 2018-07-10 07:55:17 +0200  nmr@ibg-4-babsi
$$ # low field   high field   mi   maxi
$$   235.493606567383  -15.4936748928191  0.000  10000.000  # for region 1
##$RELAX= 
$$ Bruker specific parameters
$$ --------------------------
##$DATPATH= </opt/topspin3.5pl6/data/complat/nmr/data/PH/nmr>
##$EXPNO= 31
##$NAME= <PH-771>
##$PROCNO= 1
##$ACQT0= -2.10084033613445
##$AMP= (0..31)
100 100 100 100 100 100 100 100 100 100 100 100 100 100 100 100 100 100
100 100 100 100 100 100 100 100 100 100 100 100 100 100
##$AMPCOIL= (0..19)
0 0 0 0 0 0 0 0 0 0 0 0 0 0 0 0 0 0 0 0
##$ANAVPT= -1
##$AQSEQ= 0
##$AQ_mod= 3
##$AUNM= <au_zg>
##$AUTOPOS= <44 >
##$BF1= 100.612768526
##$BF2= 400.13
##$BF3= 100.612768526
##$BF4= 100.612768526
##$BF5= 100.612768526
##$BF6= 100.612768526
##$BF7= 100.612768526
##$BF8= 100.612768526
##$BWFAC= (0..63)
0 0 0 0 0 0 0 0 0 0 0 0 0 0 0 0 0 0 0 0 0 0 0 0 0 0 0 0 0 0 0 0 0 0 0 0
0 0 0 0 0 0 0 0 0 0 0 0 0 0 0 0 0 0 0 0 0 0 0 0 0 0 0 0
##$BYTORDA= 0
##$CAGPARS= (0..11)
0 0 0 0 0 0 0 0 0 0 0 0
##$CHEMSTR= <none>
##$CNST= (0..63)
1 1 1 1 1 1 1 1 1 1 1 1 1 1 1 1 1 1 1 1 1 1 1 1 1 1 1 1 1 1 1 1 1 1 1 1
1 1 1 1 1 1 1 1 1 1 1 1 1 1 1 1 1 1 1 1 1 1 1 1 1 1 1 1
##$CPDPRG= (0..8)
<> <> <waltz16> <> <> <> <> <> <>
##$D= (0..63)
0 2 0 0 0 0 0 0 0 0 0 0.03 0 0 0 0 0.0002 0 0 0 0 0 0 0 0 0 0 0 0 0 0 0
0 0 0 0 0 0 0 0 0 0 0 0 0 0 0 0 0 0 0 0 0 0 0 0 0 0 0 0 0 0 0 0
##$DATE= 1531202116
##$DE= 6.5
##$DECBNUC= <off>
##$DECIM= 792
##$DECNUC= <off>
##$DECSTAT= 4
##$DIGMOD= 1
##$DIGTYP= 12
##$DQDMODE= 0
##$DR= 21
##$DS= 4
##$DSPFIRM= 0
##$DSPFVS= 20
##$DTYPA= 0
##$EXP= <13C_ns1024>
##$FCUCHAN= (0..9)
0 1 2 0 0 0 0 0 0 0
##$FL1= 0
##$FL2= 0
##$FL3= 0
##$FL4= 0
##$FN_INDIRECT= (0..7)
0 0 0 0 0 0 0 0
##$FOV= 0
##$FQ1LIST= <>
##$FQ2LIST= <>
##$FQ3LIST= <>
##$FQ4LIST= <>
##$FQ5LIST= <>
##$FQ6LIST= <>
##$FQ7LIST= <>
##$FQ8LIST= <>
##$FRQLO3= 40226.5694620013
##$FRQLO3N= 2
##$FS= (0..7)
83 83 83 83 83 83 83 83
##$FTLPGN= 0
##$FW= 4032000
##$FnILOOP= 0
##$FnMODE= 0
##$FnTYPE= 0
##$GPNAM= (0..31)
<> <> <> <> <> <> <> <> <> <> <> <> <> <> <> <> <> <> <> <> <> <> <> <>
<> <> <> <> <> <> <> <>
##$GPX= (0..31)
0 0 0 0 0 0 0 0 0 0 0 0 0 0 0 0 0 0 0 0 0 0 0 0 0 0 0 0 0 0 0 0
##$GPY= (0..31)
0 0 0 0 0 0 0 0 0 0 0 0 0 0 0 0 0 0 0 0 0 0 0 0 0 0 0 0 0 0 0 0
##$GPZ= (0..31)
0 0 0 0 0 0 0 0 0 0 0 0 0 0 0 0 0 0 0 0 0 0 0 0 0 0 0 0 0 0 0 0
##$GRDPROG= <>
##$GRPDLY= 67.9930419921875
##$HDDUTY= 20
##$HDRATE= 1
##$HGAIN= (0..3)
0 0 0 0
##$HL1= 0
##$HL2= 0
##$HL3= 0
##$HL4= 0
##$HOLDER= 44
##$HPMOD= (0..7)
0 0 0 0 0 0 0 0
##$HPPRGN= 0
##$IN= (0..63)
0 0 0 0 0 0 0 0 0 0 0 0 0 0 0 0 0 0 0 0 0 0 0 0 0 0 0 0 0 0 0 0 0 0 0 0
0 0 0 0 0 0 0 0 0 0 0 0 0 0 0 0 0 0 0 0 0 0 0 0 0 0 0 0
##$INF= (0..7)
0 0 0 0 0 0 0 0
##$INP= (0..63)
0 0 0 0 0 0 0 0 0 0 0 0 0 0 0 0 0 0 0 0 0 0 0 0 0 0 0 0 0 0 0 0 0 0 0 0
0 0 0 0 0 0 0 0 0 0 0 0 0 0 0 0 0 0 0 0 0 0 0 0 0 0 0 0
##$INSTRUM= <spect>
##$INTEGFAC= (0..63)
0 0 0 0 0 0 0 0 0 0 0 0 0 0 0 0 0 0 0 0 0 0 0 0 0 0 0 0 0 0 0 0 0 0 0 0
0 0 0 0 0 0 0 0 0 0 0 0 0 0 0 0 0 0 0 0 0 0 0 0 0 0 0 0
##$L= (0..31)
1 1 1 1 1 1 1 1 1 1 1 1 1 1 1 1 1 1 1 1 1 1 1 1 1 1 1 1 1 1 1 1
##$LFILTER= 500
##$LGAIN= 5
##$LINPSTP= 0
##$LOCKED= yes
##$LOCKFLD= 4932
##$LOCKGN= 99.4675064086914
##$LOCKPOW= -20
##$LOCKPPM= 2.49000000953674
##$LOCNUC= <2H>
##$LOCPHAS= 103.6
##$LOCSHFT= yes
##$LOCSW= 0
##$LTIME= 0.25
##$MASR= 4200
##$MASRLST= <masrlst>
##$MULEXPNO= (0..15)
0 0 0 0 0 0 0 0 0 0 0 0 0 0 0 0
##$NBL= 1
##$NC= -5
##$NLOGCH= 1
##$NOVFLW= 0
##$NS= 1024
##$NUC1= <13C>
##$NUC2= <1H>
##$NUC3= <off>
##$NUC4= <off>
##$NUC5= <off>
##$NUC6= <off>
##$NUC7= <off>
##$NUC8= <off>
##$NUCLEUS= <off>
##$NUSLIST= <automatic>
##$NusAMOUNT= 25
##$NusFPNZ= no
##$NusJSP= 0
##$NusSEED= 54321
##$NusSPTYPE= 0
##$NusT2= 1
##$NusTD= 0
##$O1= 11067.40453786
##$O2= 1600.52
##$O3= 10061.277
##$O4= 10061.277
##$O5= 10061.277
##$O6= 10061.277
##$O7= 10061.277
##$O8= 10061.277
##$OVERFLW= 0
##$P= (0..63)
10 10 20 10 20 16.5 25 50 525 30 60 40000 40000 2000 0 0 1000 2000 500
600 2500 0 0 0 1000 0 500 10 0 2000 0 0 5550 0 0 0 80000 0 0 2550 4000
0 0 10000 1110 0 40000 1575 3000 0 0 0 0 0 0 0 0 0 0 0 0 0 0 2100
##$PACOIL= (0..15)
0 0 0 0 0 0 0 0 0 0 0 0 0 0 0 0
##$PAPS= 0
##$PARMODE= 0
##$PCPD= (0..9)
0 80 90 0 0 0 0 0 0 0
##$PEXSEL= (0..9)
1 1 1 1 1 1 1 1 1 1
##$PHCOR= (0..31)
0 0 0 0 0 0 0 0 0 0 0 0 0 0 0 0 0 0 0 0 0 0 0 0 0 0 0 0 0 0 0 0
##$PHLIST= <>
##$PHP= 2
##$PH_ref= 0
##$PL= (0..63)
120 120 120 120 120 120 120 120 120 120 120 120 120 120 120 120 120 120
120 120 120 120 120 120 120 120 120 120 120 120 120 120 120 120 120 120
120 120 120 120 120 120 120 120 120 120 120 120 120 120 120 120 120 120
120 120 120 120 120 120 120 120 120 120
##$PLSTEP= 0.1
##$PLSTRT= -6
##$PLW= (0..63)
0 71.508 15.162 0 0 0 0 0 0 0 11.441 0.45765 0.18719 0.094153 0 1.6847
0 0 71.508 1.1173 0 6.0648e-05 0 0 0.00097037 0 0.046797 0 0 11.441 0.18719
0.74875 0 0 0 0 0 0 0 0 0 0 0 0 0 0 0 0 0 0 0 0 0 0 0 0 0 0 0 0 0 0 0 0
##$PLWMAX= (0..7)
196.9 48.2 0 0 0 0 0 0
##$PQPHASE= 0
##$PQSCALE= 1
##$PR= 1
##$PRECHAN= (0..15)
-1 2 0 1 -1 -1 -1 -1 -1 -1 -1 -1 -1 -1 -1 -1
##$PRGAIN= 0
##$PROBHD= <Z116098_0570 (PA BBO 400S1 BBF-H-D-05 Z SP)>
##$PULPROG= <zgpg30>
##$PW= 0
##$PYNM= <>
##$ProjAngle= 0
##$QNP= 0
##$RD= 0
##$RECCHAN= (0..15)
0 1 0 0 0 0 0 0 0 0 0 0 0 0 0 0
##$RECPH= 0
##$RECPRE= (0..15)
-1 2 -1 -1 -1 -1 -1 -1 -1 -1 -1 -1 -1 -1 -1 -1
##$RECPRFX= (0..15)
1 0 0 0 0 0 0 0 0 0 0 0 0 0 0 0
##$RECSEL= (0..15)
0 1 0 0 0 0 0 0 0 0 0 0 0 0 0 0
##$RG= 201.15
##$RO= 0
##$RSEL= (0..15)
0 1 2 0 0 0 0 0 0 0 0 0 0 0 0 0
##$S= (0..7)
83 83 83 83 83 83 83 83
##$SELREC= (0..9)
0 0 0 0 0 0 0 0 0 0
##$SFO1= 100.623835930538
##$SFO2= 400.13160052
##$SFO3= 100.622829803
##$SFO4= 100.622829803
##$SFO5= 100.622829803
##$SFO6= 100.622829803
##$SFO7= 100.622829803
##$SFO8= 100.622829803
##$SOLVENT= <DMSO>
##$SOLVOLD= <off>
##$SP= (0..63)
120 120 120 120 120 120 120 120 120 120 120 120 120 120 120 120 120 120
120 120 120 120 120 120 120 120 120 120 120 120 120 120 120 120 120 120
120 120 120 120 120 120 120 120 120 120 120 120 120 120 120 120 120 120
120 120 120 120 120 120 120 120 120 120
##$SPECTR= 0
##$SPINCNT= 0
##$SPNAM= (0..63)
<> <Q5.1000> <Q3_surbop.1> <0.0> <Eburp2tr.1000> <Crp60comp.4> <Crp60,0.5,20.1>
<Sinc1.1000> <Crp60,0.5,20.1> <> <Crp60comp.4> <Crp60comp.4> <> <> <Eburp2.1000>
<> <> <> <0.0> <Q5tr_sebop.1> <Q5tr_sebop.1> <Q5tr_sebop.1> <Q5tr_sebop.1>
<> <> <> <Gaus1_180r.1000> <> <> <Q5tr.1000> <Q3_surbop.1> <Reburp.1000>
<Q3.1000> <> <Q3_surbop.1> <Q3_surbop.1> <Q5.1000> <> <> <> <> <Crp60,0.5,20.1>
<> <> <> <> <> <> <> <> <> <> <> <> <> <> <> <> <> <> <> <> <> <>
##$SPOAL= (0..63)
0.5 1 0.5 0.5 0 0.5 0.5 0.5 0.5 0.5 0.5 0.5 0.5 0.5 1 0.5 0.5 0.5 0.5 0
0 0 0 0.5 0.5 0.5 0.5 0.5 0.5 0 0.5 0.5 0.5 0.5 0.5 0.5 1 0.5 0.5 0.5 0.5
0.5 0.5 0.5 0.5 0.5 0.5 0.5 0.5 0.5 0.5 0.5 0.5 0.5 0.5 0.5 0.5 0.5 0.5
0.5 0.5 0.5 0.5 0.5
##$SPOFFS= (0..63)
0 0 0 0 0 0 0 0 0 0 0 0 0 0 0 0 0 0 0 0 0 0 0 0 0 0 0 0 0 0 0 0 0 0 0 0
0 0 0 0 0 0 0 0 0 0 0 0 0 0 0 0 0 0 0 0 0 0 0 0 0 0 0 0
##$SPPEX= (0..63)
0 0 0 0 0 0 0 0 0 0 0 0 0 0 0 0 0 0 0 0 0 0 0 0 0 0 0 0 0 0 0 0 0 0 0 0
0 0 0 0 0 0 0 0 0 0 0 0 0 0 0 0 0 0 0 0 0 0 0 0 0 0 0 0
##$SPW= (0..63)
0 0.0015041 0.0012315 0 0.062603 10.926 0 0.004372 10.926 0 10.926 10.926
0 0 0.062603 0 0 0 0 9.462494 14.70914 6.868126 37.03924 0 0 0 5.5942e-06
0 0 0.07813 1.5992 0.21591 0.0026431 0 0.79431 0.0012315 0.2674 0 0 0 0
10.926 0 0 0 0 0 0 0 0 0 0 0 0 0 0 0 0 0 0 0 0 0 0
##$SUBNAM= (0..9)
<> <> <> <> <> <> <> <> <> <>
##$SW= 250.959675895853
##$SWIBOX= (0..19)
0 1 2 0 0 0 0 0 0 0 0 0 0 0 0 0 0 0 0 0
##$SW_h= 25252.5252525253
##$SWfinal= 0
##$SigLockShift= 0
##$TD= 65536
##$TD0= 1
##$TD_INDIRECT= (0..7)
0 0 0 0 0 0 0 0
##$TDav= 1
##$TE= 300.0025
##$TE1= 299.9486
##$TE2= 0
##$TE3= 0
##$TE4= 0
##$TEG= 300
##$TE_MAGNET= 0
##$TE_PIDX= 1
##$TE_STAB= (0..9)
2 2 0 0 0 0 0 0 0 0
##$TL= (0..7)
120 120 120 120 120 120 120 120
##$TOTROT= (0..63)
0 0 0 0 0 0 0 0 0 0 0 0 0 0 0 0 0 0 0 0 0 0 0 0 0 0 0 0 0 0 0 0 0 0 0 0
0 0 0 0 0 0 0 0 0 0 0 0 0 0 0 0 0 0 0 0 0 0 0 0 0 0 0 0
##$TUBE_TYPE= <>
##$USERA1= <>
##$USERA2= <>
##$USERA3= <>
##$USERA4= <>
##$USERA5= <>
##$V9= 5
##$VALIDCODE= -1
##$VALIST= <>
##$VCLIST= <>
##$VDLIST= <>
##$VPLIST= <>
##$VTLIST= <>
##$WBST= 1024
##$WBSW= 4
##$XGAIN= (0..3)
0 0 0 0
##$XL= 0
##$YL= 0
##$YMAX_a= 659828
##$YMIN_a= -636959
##$ZGOPTNS= <>
##$ZL1= 120
##$ZL2= 120
##$ZL3= 120
##$ZL4= 120
##$ABSF1= 240
##$ABSF2= -10
##$ABSG= 5
##$ABSL= 3
##$ALPHA= 0
##$AQORDER= 0
##$ASSFAC= 0
##$ASSFACI= 0
##$ASSFACX= 0
##$ASSWID= 0
##$AUNMP= <proc_1d>
##$AXLEFT= 0
##$AXNAME= <>
##$AXNUC= <off>
##$AXRIGHT= 0
##$AXTYPE= 0
##$AXUNIT= <>
##$AZFE= 0.1
##$AZFW= 0.5
##$BCFW= 1
##$BC_mod= 2
##$BYTORDP= 0
##$COROFFS= 0
##$CY= 15
##$DATMOD= 1
##$DC= 1
##$DFILT= <>
##$DTYPP= 0
##$ERETIC= no
##$F1P= 240
##$F2P= -10
##$FCOR= 0.5
##$FTSIZE= 0
##$FT_mod= 0
##$GAMMA= 1
##$GB= 0
##$INTBC= 1
##$INTSCL= 1
##$ISEN= 30
##$LB= 1
##$LEV0= 0
##$LPBIN= 0
##$MAXI= 10000
##$MC2= 0
##$MEAN= 0
##$ME_mod= 0
##$MI= 0
##$MddCEXP= no
##$MddCT_SP= no
##$MddF180= no
##$MddLAMBDA= 0
##$MddMEMORY= 0
##$MddMERGE= 0
##$MddNCOMP= 0
##$MddNITER= 0
##$MddNOISE= 0
##$MddPHASE= 0
##$MddSEED= 0
##$MddSRSIZE= 0
##$Mdd_CsALG= 0
##$Mdd_CsLAMBDA= 1
##$Mdd_CsNITER= 0
##$Mdd_CsNORM= 0
##$Mdd_CsVE= yes
##$Mdd_CsZF= 0
##$Mdd_LrLAMBDA= 0
##$Mdd_LrNITER= 0
##$Mdd_LrRANK= 0
##$Mdd_LrZF= 0
##$Mdd_mod= 0
##$NCOEF= 0
##$NC_proc= 0
##$NLEV= 6
##$NOISF1= 0
##$NOISF2= 0
##$NSP= 1
##$NTH_PI= 0
##$NZP= 1
##$OFFSET= 235.4936
##$PC= 1.4
##$PHC0= -44.81529
##$PHC1= -66.6396
##$PH_mod= 0
##$PKNL= yes
##$PPARMOD= 0
##$PPDIAG= 0
##$PPIPTYP= 0
##$PPMPNUM= 2147483647
##$PPRESOL= 1
##$PSCAL= 4
##$PSIGN= 0
##$PYNMP= <proc.py>
##$RDF1= 0
##$RDF2= 0
##$RDFWHM= 0
##$RDINT= 0
##$RDPOS= 0
##$REVERSE= no
##$SF= 100.612768526
##$SI= 32768
##$SIGF1= 0
##$SIGF2= 0
##$SINO= 0
##$SIOLD= 32768
##$SPECTYP= <>
##$SREF_mod= 1
##$SREGLST= <13C.DMSO>
##$SSB= 0
##$STSI= 0
##$STSR= 0
##$SW_p= 4000
##$SYMM= 0
##$S_DEV= 0
##$TDeff= 0
##$TDoff= 0
##$TI= <13C_ns1024 DMSO /opt/topspin3.5pl6/data/complat/nmr PH 44

>
##$TILT= no
##$TM1= 0
##$TM2= 0
##$TOPLEV= 0
##$USERP1= <>
##$USERP2= <>
##$USERP3= <>
##$USERP4= <>
##$USERP5= <>
##$WDW= 1
##$XDIM= 0
##$YMAX_p= 0
##$YMIN_p= 0
##$CURPLOT= <*	*	*	>
##$CURPRIN= <$1#1#0#1#1#1#1#1#0#-1#-1#1#-1>
##$DFORMAT= <normdp>
##$LAYOUT= <+/1D_X.xwp>
##$LFORMAT= <normlp>
##$PFORMAT= <normpl>
$$ End of Bruker specific parameters
$$ ---------------------------------
##NTUPLES= NMR FID
##VAR_NAME=  TIME,          FID/REAL,        FID/IMAG
##SYMBOL=    X,             R,               I
##VAR_TYPE=  INDEPENDENT,   DEPENDENT,       DEPENDENT
##VAR_FORM=  AFFN,          ASDF,            ASDF
##VAR_DIM=   32768,         32768,           32768
##UNITS=     SECONDS,       ARBITRARY UNITS, ARBITRARY UNITS
##FACTOR=    3.95999999999999e-05, 1,        1
##FIRST=     0,             0,               0
##LAST=      1.2975732,     5086,            -1932
##MIN=       0,             -636959,         -636959
##MAX=       1.2975732,     659828,          659828
$$ Real data points
##PAGE= N=1
##DATA TABLE= (X++(R..R)), XYDATA
0@@@@@@@@@@@@@@@@@@@@@@@AeA7c0E6h6A24a49A74b14B51b89C37c70D14d43D81
40e42F06f75G34h34H92i75A101a211A354a466A627a802A993b206B470b768C086
58c525D021d676E514f616H231a0684A4926b3493D7662b95216k24784D19854Q8655
71E08509d02187a96458F39053A23925e56659A60852M33624c03453j55853D54535
82B75214f32637a20596E54933b14813l49336C47992L1473e02534a85643E79571
93A5489e65744B07968L47195c44743k6623E68233B56871e73198E9187N63337b10790
105d26502D58920r3692d75724a17508E56662d7200n19517B06980K33399d32778
116c30808E40034A18078e66613A14326M38920b73624j17124D57842j68083d64049
127f8100E60860i4849m01824B89300J00533d34959a81998E85294F2436d95296
138A94505K72000c47170l9601C71382A34255e59712a05255D14344b30006k91078
148e21084B43116J2966d83867a46231E11432c6442l84263B50576J75451c15827
159b82886D09511A31304d69502d334D12083b42010j89882B77383j27109e08300
170a22815D05684a39959k87075B09892R0769c37103J20591C88827G7878d10036
181I3135L39431a82122p5126C83205A78917c50853B8342L82045i6387j95700B53307
193B55795c20806J51983C41234a8724l86665A02984K12832b45411K8675C43366
204A20773c11858E2670K94430g8039j37955B49025l0628b55194f5694C37646b6923
216c30549A63992J14675b22790J03823C10935H8136b62474E1114J83575a44392
227b27463A61195o0598b87803f5639B32880a19082j80792A59894L4522b08032
238e0784C10618H2902a46906A11464J44769g0142n7034B12438r6819b12645E037
250B08273a32751j01986A32122m3976b25298g4385A82673B402a90766E9297Q3146
261A42443a20792J830A67761F5951a68119F8796J37368g9139k6331A55842G5174
273a40433a9764A37184b5397j27758A6002M4028a86773K8906E9068f3842j38792
284b02634I521Q9157a05807L4664A05788B6878a01486a0080I3701b2063q4623
295a06686E7490J4286a34882M1406I4070c5776j03068E1361K4986d4699J6591
306b8108G6291B0352g3880b0142E9364d6495o3681D3330r896a24042d5840F9781
319b2393m5343D1467M3033C6827J2720N5905k2164B3237L6618M8078G721b8280
332A07303m9224f1979a3901E3734d5302l4698b1951i76j3969M982B3098J7475
344D0573a0731B5403L8327h643n938H6784k9707g717F7560J4914A9107q550K1388
357C1945L490C786b2272D290g396n5118J5802b1915p8467K3062b3746j5748a9054
371C4110r351O384K081J423J7928j4015C795M4294j1263b9690e992I54e5578b7196
386a3298k0060A4722J8995C872L247P524A835Q357c0516k1573b502j0417m4530
399e7449K2340O969q153J8001j1213R186C5309j5085p384K2508m974r526J2201
412C3049c6275J1590I936a7438l7117b6679j9486J5495l951m5527J9796a5687
425d5397N025a0233j0926D485J903c3617C899J5249A071J7371J5543A3033K9632
438D2665r481a3234a46H090a2997B211R774a4453I080a1801l8946K4901r107j0097
452d5050h779I497M760M7030K891k5250M2880j4144k3530K7483J944B9213K6153
465E5366B1275A0392N769b8263r42I725M89Q646J4474j1635K7174J0130A1393
479H73L4404E520B718F18a8677C812L462d0606J1485B5533m007l699J974r424
493A0377L3534j1454a4228M222c971l0173J483L964r257A0057a023n1306f521
507g835k1000a4018r930Q187A8825c478n1893b1581k006P543a978j7961D347M3954
521D8301j6236H808K6891j4134C012N010i906j1742C785b6593j2429J1234j1929
534c9717q898J9257j8010f755B0474b7035H092L4814A0977M078L1612H874J1525
547B0399j776i357D690o94e8661O217K763l5761b6862P62l5551H688K3513b3110
562A1375R869i717A0318a6174q76A9577a309l8432a2692k527l751A7772A873a0185
577F3486j770I853J7292p456H087L05a4484A500K6498A3242m885M7488a707B8996
592F5693A4051k397O5965C4576h109D290L771J7302e493j9844A9447M0222B8184
606G0406J1522C7225J0790Q649a807H847J9364C522h562j4618j0964P851k8447
619e4740j0261a1738p113k7795A8624J0868b688B4598N527e973C721J2636n240
632A1117n453b2423a704q664o0105N470b2595o3409J009d869K19m8549b447A5084
647b71m06m877k678k652k257c832p568n1790K8067A6477e7509N961C6958A3708
662a1339A7751J2808j3574g906k9702J2452K88l297B3767a1735l7981C6698J63
675C6861c3585a649D9697k3669A2115c620F922l5d4469j7717b3075k7621K2200
688b8496C4617j7063C419Q5308l5961a6332B1677J6145B374d195j2949d554l844
701h398m3703b3967i230l6483J8694C1212a441C2P6273B9214A3020J2334J505
714B6859F386P390k53M3982B5932a9872C0342k281c0936a3082A2355a6521b748
728C2980G148L2389K2118B1567K2687j3981Q304K0795A9573g77E1246k3255d2771
742a1350E02a8981A4683m289n110K7064l045G73c08k5609J0117D525d2459o01
756d3060B4458e886k3122g910b172A7485m415a1003K386A1223b4931l3381p493
769f5805k0386K0323J074l3958M2669A7701a072q52B1814F734K2589j3672a6469
783A91M820c7230O971q429l2127c3350N027j6749i133I038A114J2804M293a7200
798@a6293l987A3999d227b41B4961o246b0601A4748a9900f570C5355E691a733
813C6158A6837n397J420i154A0507K3823A2151M017L3956B4249G844D78b5970
827a1898c390k3374f751A6739o685J1175n383h725A6538J974c2684B201L8073
840D0274j8521P515K486A4219L2739p327a2054E1839j543A6826O469a1960k5704
853c7664a3269k9949l4281c8010I34f764D3848j1267J6817M6354j7085k0782J5119
866G3004r074k8262J1367e534q843F891d3245j4995b0253j1894a2337C0846a6994
880A1485J8117a4075H538L317b4156m419D325b7668i222G624d6373a4651M416
893a0235k9454a3010C40a8593F678c8607o997J7679j3083k0868L010b9123j5420
906d4543a4593k2141k928d374p087l4663J7112n026j840b366j4217k4921b259
920a3895k8166a1827Q79I744K5986G151J1228K8277B1550g451A4701N674j0059
933A0316K9962e971j1881A4219a6304k6630O342q232a179H288a7078D1123L8631
946G9754l9254J9182J6499k9657K7100M622l1297r767n985b053j0982l3309J0871
959c5473F713b6000j5312C0789j1309a0917C7188r750a4777A1896J5759E614J286
972F900Q379P473r780b3434A329M3158b4560B8Q2930A8692b4976D0918J2498c3437
987e1955h019b079k7436j4422A4257E395c3104C0108J062d1876A4810P2454h974
1001c9596E3774k066c1996j3364A3238M902c2958L802F8423B6178a4649H7231
1014C9936g4117A7587O4328e0327m1786B4654A0659a00493o712i116p997j06896
1026a24009e7636F6338e1541m975I7255C6490h0488A9514P4091c5322m8862E7947
1039F2308i2059P990D0388a9141j53493d9972E7479a29657K1455H1013h921j41698
1051a50619b362G7214f7514j1653H6009K1355h1116b6321A60325B8444a41726
1063G7805Q5905h8917K6151A77294F4257a27148C5599R2239g2832o1711H5016
1075H4179a53486b9730B03941b6901j35839A43974M7686a15766b9199B46960F5310
1087a26859G4765J01829h4096m0982A45350m5949b00218B2869K45606g0904j16029
1098a86933A97360k9318a94292e5378B13085I837b25709B4304J25612a81225l2616
1109b13841A52545D2184b61166D8317K52350i5957q5055B72460j07430b20611
1120b7172B89353c148k31299I7750J20638b21022K8774B29217G643c42439C3184
1132B42218b09066k9169B18875I5804c22604d3221B88597e9699k04859B07257
1143B82497b32677a06877C49466D3094c18352A36253J50052b25273K7976B68530
1154F5375c80532c7199B70118a89046j65586B04448m108c69009a25188C64032
1165e4324l08924A61968J34941b41949Q1657C45751G3050c55812D1542L04584
1175C46126b27299j23488B81981q9563d25199i0008D07943h9805k86501B13239
1186B58881b96331J33612C70916A7024d22191G7371K66694c04499j6744C69933
1197A86782d03837F0558M40436h0652k01222C23899r111c05927i2399D52398B1136
1209d16229A81126K05153c37238M7930D06752I3634d48093G6379L69899a97724
1220c30707C32846r4738c83911h8294D84288b3570l67481B97235J23433c31897
1231a68830D95993D8359d37648A53153K63800b74569o9687C31961A47689e11568
1242a17061D34821a69920k99410B69260L1430d03073a53315D71644b2937m01616
1252d24553B04995K01832b80098K6265D21939A46250d96191a7248D51415b17269
1263d30029C08188p4686d45270a08634D17145a19072l23082B30240J14422c67189
1274b52565D34466G4244e16552E5959L78495b81765r1995C78037j59202c99126
1285I699M61106i3377k75608C01594J7436c65763a77619D51210G01e14121A03315
1297C60034c61770K2842C61620A15556d30098A8754L91171a60269k20948B77258
1308B54582d17226a23502D66733b4609l80145B47931J23107c02475J24747D40533
1319I9070c87176G3121L11049b16976j53148B58781j12416d67678a13136C83883
1330a15698k47890B72282L7576b97936h7989D45339H3343c20336A72878K45653
1340D18531a59226p3284C65468A75521c70000A2834L62020a69103j32140B88774
1351B03443c34044i8196C70832a5731l35423A50111J88671b22060J2555C41880
1362A00101c52859E6390K51927a84056l1062B96280j34764b91425b9443C38283
1373e6648k66873A62285J01870b67740R0604B64102b0698l55186B7238J76359
1383B03597b43993J7642B24810H4769b87275b5267B66763a02644j75888A48042
1394A87852b81439i4414B81157i57k54626A38131R5159a52673L7622B45635H8519
1406b51427a6264A81664a93283j15143I7910D4268c12295f4669B40181e2531j32344
1417a84875A67601M5580i9613d9438B49648I3736a51410H1444J21980a19315m0807
1428a60122A64212E2041b32931b545A86159h9277r6839A00568r360a83469Q4613
1439i8856A19068B4805a71107E9551J05592a06841L6334A90378C4079a49403E6862
1451A74842f2527n4331A18750j1345a09587d8537A48086A2087a27773G6197M0723
1462A16920a13981N6151A11178d0150j22318A2854P8229f7296n040A14677j4736
1473I9941g3128g180A49203A0302g5388A05493N447f2293A0332J18977I862e7948
1486G2001K3857c022k578A02952E0358a03468c3893C9817a12746m0774H778g738
1499a16386i757G7441B5018a554F6392M2766B5736o401Q5130D0998g3546c604
1512C7645a24791m952A0346c0333o8582d0938A0118b7377l6938J9167J5364n6575
1524h6359J5752B0704d6188m3102B4407K3366e0684b0920F5948C0384a6413A6567
1537B6200m562a7458l022M345n1337K1373A7423b9447k4774C3957j5011d0916
1550b6098A2082a705k4446P243B7684O122E78K6327K0855a2080B8501L5377A4329
1564A7149N3821B3050A253J5665j431m022Q639G559M2769j7904c33B7623A3063
1578c1092qQ328m4651K3687J6993k4645D342K5975r023K3982J0342K2012J2028
1591H9658l2852k1733K6060B6771b3930N906j7954j7261K5533r210j1948A4922
1604A9294C031P628d135B673K3327a7514l76C9490A7287C118J8162n690J4159
1617B9749L4945B7975J5745M6793C7068j1410o881b2151O297j4364m9241K0889
1629e8570e550k4233a4382o038N239G694J3770b8617b493B1522g807C661b901
1643b3697c986j8950l0591i193B549b5472A3363d943j1566e430k3506l4153a8217
1657c0304j4304e102j7870j3147a7659k6688k2904K5230k1779J4926b3476p169
1669c0645P13F133a5164B4202K6922j9798O864L2106j2423q743j0595E11K602
1682C113J602e5462J6084a7724n764f528c45j4990A8403J1975c827G422L0162
1695C7584q248K460q94I497L6990P491A1216K6265K6528rQ572l0993j9416K0971
1709D3134A2749e3395K3795j6409J2797J0405j4900J0114A9400C202a0784C1219
1722B7539J2031K1269k9348m554J6099d805j6503L965k4508J2169G473b6132d673
1736D5518g381C319J0094c130G357M207f452b687A3347b5488g487r178k2794L806
1750c5653a4770k4940A7883N538a0809C058K6391H968J4196J3828m350M985j6458
1763B1169f305B6884b505m1818J5343q785p768i065k9276j6787H404f972k1929
1776b8901j0401J3072c394A3221a6712A711L4814A1340b0511K269n257P715A1375
1790a7637J979A8798C242c9684J5j6889b5444k6805k7188L3145a2459j3406l188
1803b9053a049j8323A6022K6811B0820J2953K6956j2294j5312A0385a3624C237
1816a9729k2739I873J1696B678K3095P100A2738J6799N899p709K9781k6585R46
1829C1869J4861a0143a825A8317e964k0896D5009j2979d436E2352J6095C1658
1842C9104j1443l02j3445o160m75J9025h725A1795J612d2784a8489C4490b0112
1856b2447B5458A0900F31c1272K475a1079R91k8918i410B439J970N688i49l3799
1870c4748B1838K0600a9021a30A6932O438A0545b9151M129I857d7166j4917b0320
1884c2572J214H551c3485J641B0036o829h292B084M8085j0867O633A2345L726
1897A6071J3131c6306l84a6526l0826P633J8069j0601k063a146j5568h160F562
1911d39B3596r192a0647L746C326d3175L357i060n4981b1378Q892l803B841R069
1925A1910a5345f677r25J497K16j239k211A2627b1313j6375d141A5261b3264G346
1940A5564j038J9336F608a485A8425e846j0445k172j2197I088K4735c10B343N5029
1954E7372k5458j1114R191Q690K7107J3564B4095J6910l508A2850a2511m624j0728
1967b7863A9260N663c957a57D5383j9863I615J8783E400L3889M891A9828K5752
1980D5580J6065A4462N186b5776j0337a0052J110m4780b1983b273k7151a2420
1993a2709q743C3838C388a772C7273E770f370A3899b7593l0778b8533k5817J5590
2006c8760a2041j9994O444c479k2340q6b637l1154b185B4960b1471J149B597a8371
2021a4037K580j9318B308L1582a2997A0730J5332a320l119j6097k9143a5786m3
2034a5829l0088J9390a503n377A0002L229i811C9597P854A6697O161J9766H500
2048C470c7920j3148a6794j6189k3353a1964b333p505A7498g757b748B8577j1301
2061A7276d154A8098P674l518j0008b2526N093A2532b5928r856G406b510o293
2074h803A8401a0324M202B8186e439A0211L3790A8919K0854P943I467J7833N981
2087C3281h690A8192O985D920J8935p625D400J7375m130C179K6425P3j0230J6897
2101C6344p506A4204J9331H374a5381B2786Q68E528L4669j1188o260J8292I831
2115b4979A2492h920l4802j290Q153R926f846o3684K7526a1924k003g45B2331
2129A8281K6083o213a4352k049L854k8422j9109J997j4361b8232a2040m5401b8553
2143H997a3947R23e936o654c574r439k2386N512K191O41J839p798n131A8320D878
2159b0374C2318P75g998N83A0832C958L830P486D657J6025H69a432B4756b5584
2174c778D3655C38b4583C1590A1179d9939a9598f9o188J523H768L0025O576B412
2189B0394J8486b1673D159M2720a1039A2765M5835k5290b5324a08C5976i468m8063
2202e7531J4334B4808c1883m6410a2988C382e8840E001N0106H22N0234O2895l2943
2215H1008l7083J8092J9551C8391f3361a0599D0356d5623l1408C2745D023f3834
2228B4540K9374a4979A5354P0725l7620d2981B5108M8400a5986q9431D623P1640
2240G6263e2306K5184A23629D1859c7847F2942Q563d7325L930E8863E512h1995
2253b5776F1663e7913o5192D3839Q141a09694c2303I8178b8885p2728H614J4820
2265B3434a27048K635C3269b920j22102a2890A07306f4550l5423A04718m6212
2276E8506a36789i951A38789c0935q9593C5134J8070i7992j2648E7446h159j45590
2288a53749a0254I8883a10456q464A16661B3865a62146A3667J63193G30g1492
2300A41174J9695d8670J7747A60351B2273a59431C2830R6533a44325K6925A46689
2312A1755a90636D0040J47647c9571m7669A60273j9256a15965e0613A87541b9106
2324b05533H3329N8282a46642c6275B40120D6252a54782I1779J11058i0706n8795
2335a49501A53023o3996b25784f1984A81332i2719j22031A36334J3791a71847
2346c0286B43200E478a94879G7848R1421a54786q596A86340H1914b45284C6836
2358B79807g3192r4551B30433n5622a92815b1488B50391b5410j94783I2213N0607
2369A42820b17552M5517B31901A1693c05231G2993J83088a62688l9858B24594
2380A18679b51308B607K67495b7748j66329A71464L7982b23477i0574B88343c7932
2392c25096G0246J38451b64103J8678A89600B3795c37654d5108B42552a05528
2403b43608A85393j9071c01071h1488B88184g5812k39678A55089P4314b35947
2414a27866B77684F0678b77979E8762K24029a55813j01198B18462A05549c59125
2425h6415B74688a41344j60633B04454K0408b19547d9708C48720E3685b78655
2436A12415J79441a97141k6652B96523A15379c23973D1232L08829a16100j00163
2446b16263C00180q9308b26837a5890C45128c4296k85917A16819J18584b97915
2457b22623C01133F0218c39112H6811K42549a43148m9659B84554j13629b50383
2468B1147L42552e1664k38859B17360M8409b91665J40655C34181h429l33162G3817
2480B29504b39298j0272B15011E3080c32465B924L12796a12583j49284B61335
2491B17376b91034e3977C50085i159k64323A79638Q9164b02667N2649B79370F0082
2503c16110D7424K32204a92329q6172B30810A03448c57464f1362B78906a05265
2514b69015A89336M8097b16134h8044C09912E3581c08640I0784J81925b16465
2525b10311B53597F1640c27695I453K49312a43952q2687B02699j7345b62307a02898
2537B57574d8289l00577D9195J25469b62065O6486B35160B7718b87430F9705J79046
2548B48751a35017m6275B52195q8899b17732b5867C14629c7433k27387A26389
2559A70930b36390a15475B31104a177k52310H1177J09230a82567L288B09045H8056
2571b35072A6475K82748c2085j55130B17688k3511a49896A1274K78416C4847a58905
2583A47411N2843a46996K7923A92879C7781b58076A6529J88772a29916n5498A57351
2595G9904b00141b2183A96960a1157j33134A32459N3351a20688N1346B25727D1013
2607b08304G0998J05176a42624k946A56650C2472b10282c2311A52084e4088j07140
2618a61228A04236J8872a46066O7951A36597e5337j59929F0649K4894a88487Q8179
2629a00308A44543B1361a58285B2439J57128h531p9106A20028K1066h9511b2908
2641A39822f0431r2269G0300k5772a56708f2113A17056a3210j21907C499R0144
2652I3643g1745n3840H7795D3538a19699g57A08528e6785k0310A04087k9782g6149
2665B2507J19887C1368h6465B5385N4565a00850m1230C9621c5268j15435b8265
2677C2299h9620p777D1641E530f6036F092R9193B9016c1843H4406J8450d9339
2690b5310A11628B6251f3693D6490K6953b8709j0435D1449G935e7549a3459F5542
[...]
2978a145185L41064L94177M184l12473l40680L5615L9077l97588O64639M8158
2968f69012m48824L87248k84527J40404M35177N6861k45149m8611k43994n28965
2958a449392j56894P7791K96763K64691J66531j2706O0951j15333n92988N21428
2948i39158l61619M636J63719K81621Q2321R3901n1285k54482K21857O5207J23329
2937e69953m6220J9851k85147d03606o87597j06005L51231k14604j02517L12197
2927h50901n0680d00424m15178K27582M1757l99669K90348c4790l58046j45575
2917e38411j23345l76843L92959o02869K00975o17871n4715J87690L38350e68316
2906c54862O2412o58491K81156k40266L31421J27637j12496k05029l86246M53423
2896g01341a36009N5090k00764m20540b91847n10424J66542k96175l5039n211
2886i72154k83316J72740J49249k62127j29222K48264c89206H0238g900m88678
2876d96578o20919j25627K76680n47622l11336O81821J54552K26954L15285m77104
2866i23894o94798j33346P80843d16383q8220q54033J56343M50016J85294l7797
2856f04780Q9811k54904g3399J2893r60752J5539k30109d05608k63050J10405
2846e58253J2145j36183n33128N61685l08334L54538p1916P0562l84536R3559
2836h99861m73606M88808j14616l58496k5542N71849J16343K41188D8696a78072
2825f6221n60789k9136o5458M7406J04411b28723m55878j21592L57157k92855
2815g41891k61582R5175k93182k04216O15753Q5841o86865j90818N51493b19830
2804f21869k1337p3777l47029N2443K38308K61517J73274j62786j17935p51057
2794a370248k10578g82486j80656K47849J72385j39170n3653p4702J29525j39820
2784h20728r478k18474J70495Q1564J42112k6410j72565o158n47302L64831J53425
2773h88688r5259K0030R8433r0508J56495b64788p4077m23853c57835m38938L02292
2762d94481l01235K40854j65601l18291M33800q2778j2693C558L810i65987J22717
2751h43270o44727O87647m03010k00666K30003M07332M0037j93570l57932L97637
2741h80519k31406P7510K6495K19509j72346k28809m82192K9595k41296h63121
2730f32406m17291l90561N90788L10959a74720l05087l60160n84366M11744j2428
2720a025017J28021L11159m15840K4627k8918L66687J79575D4155d18110n53333
2710i71443q1965N8274k68795M95940Q8952k92102N7871r5968J6638l48284f35762
2698g78297l43267p4698K52644m07384k90493j54372O31124Q4725J57750o33j78158
2687a101059K20639j20969j22728k93557K39536N26717b0205G4286e54892J92727
2677c62165N5347l80647M2495m58557J76974d00347a47649m28375b79173a18911
2666F9991d94387n65756M26401b96886k46264o54693e95009k8566b02934A52008
2655c30043l37439j46163J87942k58770l5587L34010m73007J4146L33244b08161
2644d22823m73546j6922k2019K66578J63096j02520M4089j0267J98399k78530
2634f54465j63165j6857R4314J5249m05213j67822K32041j38365N90814j69218
2624g82687m45690k66043f27189A58785k9086f03103K22110k02895O442k18206
2614g95652l00807J87064q1903K39286k38691K08296b03524l98428n68729m92270
2604a662951O26325L74606j0983j70388j3698M01050a75100k66444n56217K21658
2594g76103j6022m74356J42859M51717J15427J17092f1634m94224n75168K66703
2584h64323j73548K85667a10985n22407n30456K54583l74413j67994J39710J84868
2574a127094K69291R8436R554K89433l20043m80600K01522j5118K145q9847Q6436
2563a075885J33990n58475K66918M30795J09978b70989m23190b843p75788m08765
2553a187396M8726m9695L58432m304c34265J28473p98674L02585J16050r0821
2543f76652j13092l3397k07756J45595j00927k32314L80985M0682b56587n12698
2533g69285J10494d3883o6000j79025k35517o8172n28537J06871N9208l5185n31339
2522a521579N09477M24004N0410j40773N9443R1356K04067k44140K47351b4212
2511C81714a090987M47595M7272b69231q5808n67567J6202L75033q4425M3112
2501e72684J77587l39460N4985j17036j23548K2869J71264K91572J94355o93393
2491i33489m99603n9273p4404l77098O91295N58857L7780l6698M136K04032J78095
2480c06370l74097l83642k64691Q5299Q3348k1874k87705K09153J00703J66411
2470i93465L95431o1049c20065N7484O3587j55681l52100b29235B36910e2092
2459d84792l42516b74902Q0801n82315j83038d47127O5971o56583j47848m64593
2449a650180J37061J39261b70868F55531a2330k5304l54010m02008K96146n47756
2439a045262J25517k55976R0407K00089m61016O03234K55415P141O5442n48387
2429i63396J14309b49275k40184J92399L4859C3337M26319a61755m36942N8129
2419e40568r2571l03691K38566j6756K75371K3427B2598a66476l99551m78355
2409a044382N3342P4573k60911n3918K45797j87269J17680n058j0664N219k49481
2398a315072j15814k71307K34528K38625M22084m72672P0165K45439R5754k07258
2388a075528J07317r9133k21221Q6980p2772r1747k29689M88110j14617k40166
2378a462466f74076J51539l11672J0079j52540J69593N2965K81263l1890a86536
2367d99171j91799k7902J77802j03821l35710L22372l40067p29717h42088J57133
2357f84955J23060a03088l25064k89771J93062m93872M10926J30119Q8915a89661
2346c29661J15313n21630l03531j00880N46891o1582k46078d47044b08003k55334
2336d63337k59484J65866b32022l03473b27162N6114p10225j56294N17182K135
2326e18250j36519K93006r1474n61994k81850J47371M43244K61251f4759A19824
2315c34428N5097l9687j57005k50454n93771N97951q7558p0357j01626q88023
2305a869861N52527K15515M12460r797k94370k25784n47183M24983m65776L61039
2295a446247O34406K53957a95186j65984m49545o585m80407f07584l4490o96489
2285a338563L90379b68155m02767l7051J38325j15296p4638k98428L17004f5900
2274d11892n83417n73861k5514J5605M2789L28235O5640b53716k93480m43498
2264i90694J28407K82501L3136R3013l4105O110a23485n57262K87897j12716a60616
2252a52725A9682e67518l47272m51619O48768j29782J40144m14618a85574j72176
2242c57750j62313m28207M16999q19869o15100N79592N39291k44364l23846L58709
2232a056858l46392N98763i9728M0849K3118G7447g6009m88364k71712K9548a81150
2220b61346k60814j41249j00180M891A44651M6982f26680p21890c75832i9007
2209f79629n6234L8209r8937K26498j24743b93332J16182j19513o0886L1500l71641
2198f97690J52843J20999m31384J2126j73442c93441k28974a06236H0728f6872
2187d30212k57500J98625j49366k87456K72020K30102J99443k23764k96410k9998
2177g74516J7053j83003c59201k71080n11005L52410P11j55754d40147R6633m00146
2166g43660n12255K74174K30750j83738L62169j65816L38469k68761m45122m20983
2156a534773f32621a8667p45542o62047K42391N17388k05972l06583K03186a69613
2145d07729J8857j27844b49085l65589n98763J63429l46356k65274J77223P7316
2135a407099N08592m23431J51697J87080L49778N5184o3214k45714j6177M14721
2125d88583m3128P3796J82534k48770k43572J9118j08350j51294j34756O2902
2115a080103L01478J32361m88859j76378j7373L64075J78940a94497m914m80894
2105f80305J11203l17128m39394J37870M60780l46839n01671O21191k84839L81538
2095h57594n18061O57637J3015J28894J39612J19630A35515b41973o30036K82585
2085e89424m00707L51368J54645o38534K71678P4668K68099J38894k65167j47096
2075g81576c02440k34861l37600c14491A56163b9404n30346l54689l06340K43961
2065i76818M65806N1144O7877k15694k22589J13975o8902L4652m82839k14982
2055a448370O41409M4031q7232K44505p6561K39096k62037K32624a9690p79070
2045g98760M2828K6382o2233k66871c49721m62606j18081n4844m26917f34226
2034h78818K60243R0384o67781l51046O18599l9606Q311j66422p7552k09750N96517
2023h16921m22076n30055j66747N55587J64444M15494J02669c33731B1988a75014
2012a10591B64936d8111n76365R8445j60871L6405j33724N6990J98321J7574M6846
2001d64490j02789d7192n2489q7395l82509j51859K2444K59100K12762N4561l07741
1990d80318l17907L17424G0257b83253k09416J36695m22144j25165d20464q7149
1980e07613l54534a74293j29167o80107k50236M84771a98039l22415l0369Q6531
1970d64292l87646K44125J13529j725L6822k66490A9317P75295k66747m5801L67615
1959H49679A24213f42611R7539j32778J9129K62764a37635l40039j74482p4134
1949g26290K00081A37386g67090p85753J76432L91802K06055N0760L13980P9348
1939c34466n5472j84163m84813J75574m56049k4873N64293L95800N8076A19656
1928g8030C57349L8146b61870l98996D19999j94234R3721a59754k06686R614j15445
1917d72271K17794A91109a26739n9952c9442k00551l49871p4465b53376n49844
1907h03220K36817a89017c5457I0587b67583n57079c20670j53114Q7825j56769
1897e42728K63305k26510j47497P2422k44432L19479j98964J41656L2459d2341
1886d59421m23931K12884j25925m9337j10437l33817J75262M27860J51488J24943
1876d10431J91190k59269L5214m40969Q9897j10523l68552J69361K96020P4696
1866g33366k59156J6355L88661j0516m95542J60980M02461K07902o37284a87521
1855A76270f80809J19431b27607l85275l00230Q8205P3185q5352k60477k97192
1845a394743O13066L00149j71044K14197k86879K49395q9240k57753N0854L61685
1835d10313o5404k23560k5938k19195J09798J22282b68892j81521K07313l31928
1825e75028k31698L37550l27031M9102J5406J15356r0512J28130k09058p0314
1815h58097j92054o20483g45220D8759e4812A7066d71488j66079d4931k99402
1805c44333j061712n1134L38686N6435K46221k0596a95499M5252B98754c02879
1794a127188m6787e32539L8965q80884M58101K14781l80840p1290p2334M04771
1784h21269l80157J19344L34473m0441J9702c39073D6421a74358m85325b81682
1773d103m1325p67630K44859k12573b26574q2535a49146A12376c02467n08833
1763h11300m33774j43562P1154O14963c37482P5952o95279k36127n9361Q4487
1753a167810M64860b22950o2210d7759k73674l00679J46998J2992J17741o88345
1743a032726l64048J20669L02991J42135J82804M961O2168A61540J66395j12387
1733B15548i53344k07455k15038L71084L18995b51107L8798a3500m08682P6742
1723c45440k40640K70518C886J57922b41760J6089k43915n08664m21633M50622
1713i49261l1209j06102R4275J67106k80083l53173M59330K16030q8335K14239
1703f57183l8215j74107Q2650l48848M86013l91855k71491e43436C6631b05824
1692a020891j00202N315M91484b18650j67340k52802b35106o68868K51827a29213
1681f89510K64432o04806J76742J92580r0777n52871e95441N8566J01939k25571
1671f60507j70689K22031g8809B6312b03466A07832b48068k68388l7889l5144
1661e89489J11550l22023L38543o098b13523j027977e31897q0960n53899L327
1651a163429d46715B09741n5157M97064F6168L8237M16598b87265N4824B4899
1640c16992j7693k58855k75640M2852k16511K76083j68396n23066L3414k43450
1630a668254N55735L04660k88323d76738L5616J53049p28453K85774c46077j23006
1620d69083m52413q9000K12730b34349j17279n65508k37417m14948J61905c00048
1609c0104p77641k55614K14903L29227r1681m2232o488c27535j26716l01215a67376
1597a54466r09770L23262j88487n53087J09095N46826J5741P8960j58348e9227
1586A01653e02972K47745a14394n38251J9962Q1363J14953m28822p76476O73013
1576i68652K63684l17099j51322a08117l00383o83605L13263a68929o5601j69892
1566d04422M5701a16354K8643J2860b4989r1034l93694m44933K93438C82230H3730
1554d98705J2045l47616K37959n9389o2465K75624h5010q3769k65988m03829J03158
1543g35438J76892k00371r2026q9994J51152K58336J75385r09647m36989P92729
1533i09971M3578q0956j70072l71420L5286J61619L38636d01643M6883a25175
1522b50493k23847p2464J92643O9004l46479Q7942C42539j65301g27551m22067
1512a149618j63359L66494L40825R3602a74557m79290r6819L59972l59476R411
1502g40759j94092M53164q6918O9492k5460n50908L79601B39691q6629b50472
1491A02381a24752o6359f4189j41328j29089c6177H7516c45789m72875J98826
1481f19838b54259l3272j45125l74256q55132g39198L07766j23621k72649m58886
1471a286588J21221P9724J2043d02539k51407f1816m23936m70484J34181c36498
1460e89353K06412k84989k25495l8521l40407j14373J53040K60403L26439K85869
1450c60975k72817J37506K21584m29253f7149k54305O2013o6612a43829p9493
1440b23322l77481K08111k00494j22074j75870o1419b48879m64774n9946j13426
1430h87025K18621N5098a40060k02429n29825k24064J11192l907R3238b55878
1419E0516b4686k13381n57278l81873L25930J38466L01645j71809k00857K10570
1409e73273j89923K71961K04361j46024l91216L54504F1635g6214m926J1514b6723
1397e39204l67057K49294L09840m60737c39910J11196n43239K76057j64745m25719
1387a086360d63689a41201d0556A84226i2752l09099k06469N5414n05265l40041
1377a398212O23784c68587l1937A0363N53888a779j1553l75944J70883j58455
1367c76848N3756k16454n72991L59085K75109J07892k23926k90804j24006k61860
1357a271047M65826K38593l46460j11855R1177M35006J6729k07861e4334h245
1346c18207j26635k34954J50013q38178L30315L16892r5638k37403c50628k80146
1336f30774k9622j22293b56558r5718j44583m90800M1287K89360K81285J71654
1326b04073k05648p39545K45403K5973Q2923J34256m76312e33444k76441c53524
1315a22770j21154n52842Q1155G8340K08189j14535a69061o95222o5965n7901
1305i88149d72829o84711M08023M3179k05785j36491K61545c62979j92660k08944
1295g64583J48038J25518J74662l54069J72756a5802j29550p87122L90396N6217
1285d85861P0901A96789f30311j68923j53189L06891j93459K38471m62355L49970
1275g12905n78111N3121M97825j28495K8242N2908p532J52756n61126J37668P2703
1264i92946J51326J63498l29744k66015j82722b91297j69761D2247J61416c58660
1253f69484k94992J02777c04301A3619b13860b6862n45069Q7469m12585K53854
1243f43193j4046J42136j62360l53352k59516e31505Q5211k44123l48462L93272
1233f45607J32777k07273k30020m83209j40983O16930j97812L20117M5966J08412
1223f80702L12954k95758J89128j95208k1442j91823K68426p0780k49227J88647
1213g45785k79654m24614N63069j0117k508j61162M55800a39979n10991J03460
1203e47510n07429l21234N07166r4994k09138R8158k81496M11218M41477l27310
1193h31092m31228N17673C4116M8440M36384a51496k32910A6871h16413j68410
1183i84823P90b54108l14852n65965L72964L70824h3288n36748K91370j99309
1173e27975j57964k95092d29239K1815o4332l56783j7362d17589k6636k66582
1163g10807m31027o6020K45796Q3633N0121O4506d9866k82677k99891k70293K22955
1152f79772J39113A31212J97264q9097a28387m94870l7377j48243L08753m2273
1142e42397k64166P2046n62367l7669L44027L68239j88690j32934K14086E8806
1131f98700F9391N7765d94953n31544L78730j76520k37619L75451J52558J53745
1121c80152k736j8258J36798R380m77484j47061M9425L06698m26854j9471d31392
1109h97385c58611l83618p35571j522O84779J72450b35487k17817K19350A6946
1098g11842j27958j44914j5704c46591k0018p6113J72180l83383J04686b66383
1087e7606B9018g7276n71203K30638n46745l50372L14563J62982l39275N57394
1077f19294O571b68214a05937p10278j6708J06690L56802p45974L68008j79401
1067i26798K27454L16377K1950m53139J11376r1484J33301M3332J61349o64824
1057a121106k0001M44147J76299m73756M72740k09422b21884B45663d63166r47042
1047a410208f88579j35035K71423K28966j38319k92798a0934k60716o53436J47017
1037g78069k66109e15333l53694J59638J29604a29724C5094g4510l91145Q3451
1027c82204a35948A19572d54615m3557a10843k97515l79223r2159l23783K00786
1017a002737M13202o711k78800b67813p4259C8790b35460k98242k50207K07672
1007e76237j81514l57045k19537c17482j93098r4606A81400d4062k93459n8693
997c96214k1414l68700J76909J27995Q0043l10864c40586C42326Q0778A20672
986D9096b0876n47970m81246M70764j24416L08241a6406j79028p2256j52737j15540
975e35967J9757N1841j64941p3951f6308k43980j91676d216A81271c67243j27524
964d94767P9840a88664j15491A7460J13547a33127p35791L83837l40831L91148
954d34764m08489J86697K09703l7294J15244a71696m23080J9671b25825m90530
944g16355l66698J41191m1610A15383a65926m9633A13122f4448m6074n69558l45610
933a025690h432C85061f6487C65711h3162m38081b42149n03978p60058N32254
923i73931M24744n07771R2986j65667M94589m13818d71927j06055j31744c13548
912f048j40105n30375c34226r5565a84358q5069k65278J39706R0375k60880O8753
901d96751Q708l29266k83696B161J22194e19619l73031p4984K24446a09623k90343
890c99966K03a71543n02472b63658k82602l16692k06738d03281B02892H5166a26687
878C01864c92432l43542M0953K7612o7034b87213n05106j28519K44104k78913
868i55647J31332j53867m71045J21137N56823j98499o9309J08089L32662P0188
858e28136l2142K45198B82448a64167m6882j05367l84918n6509J21646J40099
848d96098m34691J01275J81391c04589j72782J78370B76103o965b20207r004n77716
837h06927L13473p0963k26498j69905K62973J64800B62841H6151b87903o92544
827i80447J14442e5285A49096p3404K13420K79781k63257i8717q5220k31506c6080
815H7419a78605j45593m84058h5988B04606G2151d20114l0554J56132k10650J20511
804c84675l91999r0317J90626k37647Q4857l7680P3221j35132O2251r8727L51901
793f13321J85272j30947p1949J39294k05191j37362J0392o9537K97973c9713r45074
782i84787a56392C1964a13575l47109l26761L55662a81606B70763L11080j74450
772D07393A2985a86231j7139D78664h1396p52893n4672o1774N9710m53878L34864
761a010039c62368E4569J43877d07139k07724a91945m05921b82146k6017k80247
751e88410l59615d61621k25104q2576Q7266K85420O3031o8943J43972j15140L1141
740c42554j09364P7897a35515h858m83829J4236J78968C05648b84519a09995l74102
729d84097n38314j38255m17470k08017K48289L64910N55443n73139i0456m99342
719e89798J01020j11101m31372c44409n74763k86091e37404a28962k38982l80534
709g48478J83426J42406D63223B03351D0360h29278c04541A44741b50622j80754
699d31376K15348j69254l4101d0389m44127Q3397l95349P2972b73618Q6035A12762
687D4148c570n2442D6967b32227k10411J58800J36686k34136j01467O4854J17453
676c00448k63694l78674a11123l02675j37736m541b73655c9820m54026j77927
666f71773K91743j80036m20489M79409k85729k4323K18053r0038k6378K87576
656d21985J20415m53522c22859J59244m83298b50251j31341m73213R0293K72233
646d92279m58826M34448K36233j32556p48451k1745k84907K75447b35714A6096
635e23745m000K24078k4967A27255d11238k39493k17085j96614P7191j78427K26527
624i39139K30330K00308e9122E39948r7807b53748P7106k0433F134b78750k60835
613e39585l87111n24872O37K82133M61311Q6908k40532J20637J50072J11112g8447
601a71435A99956f28468p31661N74587l17197L54446K75756j15164j80156L33569
591d34288B2877a45938k09328m54887J33326c00288m21867r6741q3380c13570
580c64087j50212j84601J29276b82500m77995j87640j17492M73148m36626M42901
570e86204K57395p0033n3450h3272k59668a57841l661j05632R8683q76001j72170
559a216622c95427l61264J36170J20511J65146P4343Q2807A32637d38991J59520
549b79471n62366c36057a51040l83895j86210J55497l41471J30914q734K93379
539d91560j19179r1269j99195L09714F3876b76209I1660a66231D11749K01688
529F13437A70195d21684a82192l85921n0716J18898K19882i5431m46319K10467
519c31283k41030k09278L09866J20861J5388l14169P2557K47996N2338g7965l82181
508d60146k99859j15491c41465n94851j90414M65263Q7300l41799m50124J65678
498a200412N99011K85378m82937n8912a28254j12655j03019k22135K55486o5183
488c75760j26441q5530k34395d11046r1379m09393K97170l1485b46586k76359
478e22945j45125N3889m31162Q5561J58779J20931j10160j47384j72645L14604
468g95657J98453b57937A54645c8898r82009l45979f34702k25985L18335a41711
457D24548d58735j28988n03411k28258K75862b12569j41666J20259o65687a63632
446a8318l75828Q563D23258G7489d64960o0735K26886A15217J29705j4044a6132
434a67988C22344e14080l83849d31322C5974L98134C9185d79906k00818j08511
424g89235K23986N8767l92206J72185K20164m42084L0733K59273K63150L7614
414c57653j96871k0224a50769F160M26174J98129K98125B70857m5156I0283a44311
402A1456a26841p96263n65090J40609J7094K22798b73624r6105j63617a59991
391b85133m96316k2103M4859J19321r7408Q0480J86304j65510b05501l87739k63640
380h56880l66110e08096R0298k05284L03861J0269o7504m17887K98140l5593o08757
369a140553N00864l20342k5465j60308P9667J65291k04248d74152A77358b68489
358c34960j23992l90995K94167b43269B4724c37433j79623b06863B56582b60090
347d53629J99229A18640C3629J57009R5747e97744N1337j92342L42488J7956k87850
336f66155K66087a75520l2300j3067o074k78790c0098C26772e414j52719f5101
324a50163B16887d29769j38972b72356j84678j98324a71578l5263k1810k58280
314d86931J86408a34469r48573L24951m6948p4461L41454j85335b66035J09667
304a56368k03023n65761j51435N11883J87654k63986j60308M0802o0758J36351
294f84949j09991J55018b94978J03632j72925N3039j65315k0048j953j97060m34118
283a129726j24266n3851N99598A07699d10614m97922J668J43074K74244a29244
272b8261j09810k04157p5439j21189j68830J53291a21465l24662k56561c13823
261D02176d1487A4821J7224c11481k55728J77771l92614K87069J65991n40112
251h69104l77936L14633R7304K72038k70011J14755L31341b7449m21484p8008
241e26941L1926K0209A04870J0912K25361I5531d1671l97833a43637B86707a48600
229b75142n03551J66364j56231J41115l55141K6832K80964a47249C8305a27436
218b47555R5730C24324K6028A3653K96118j17250a98196I0270a12442j43106R2031
207a63517J66o82288q7550K57508j24006K15380k13542a16869H7391Q6715R1361
196B65467d17645n7819Q2517f3396j31432H2458c1592q15894J61153J19019b73870
184H7379e76990a13690n6901N7551K045D8894P6102b51507k32375m0179k9653
173e53714P048J98602R579D9805e0942n71145P0652K47878m21997J11833a64442
161a38447q4531j22612F9594f0428k26800a33497F3506d13273k38847f7376m61562
150e28938a51843A17236A8817f23793A8128Q9271a06909H394R9961C7853J42417
139A80270g6321r3811m5784C19757K06653a40602k91782j10868j32603J15672
129e60183L774j94024L46535B76267b18594J5684c4966A06025f8078j75446N8426
118a85098f9837j83806a0400j58448C4006d30521l93069c56102G9099d06959J013
107d05946J19183k63436r3334a89172E0492d92709P8278a25779k75659n1013R9314
96c53137B29907p1497b5707r5982e8690A08968M25454o378k10941o807j31119
85A79177K74099c00687n51260L95780A3473Q8537J74476K41803q6035J6787d2898
73e45843O3978F4990k472h8797r1074r5036A86745O0915A15230A2092J36855b01837
60d05438B29190J94672k4154L500j48875m4465J57262j65488q9549k747a50844
48d89713K42969A82848J90112a45803N6844o8608j34711c1613f492l997E5886
36D81983K87510K99075D37109B0723a22828n2212M1179A05031l1470J76385m7769
25B02177C5080b62603G2139M29175D7078a06849b0115j26278l15989K21146O1712
14a79524m1149d576C2130K14095K0376j18279d3351A85151J28449j38320J11606
3B86886f1698j84618H3276
##END NTUPLES=NMR SPECTRUM
##END=
$$
$$ end of block 2
$$
##END=
